version 3
run General-0-20250906-18:42:21-21200
attr configname General
attr datetime 20250906-18:42:21
attr datetimef 20250906-184221
attr experiment General
attr inifile omnetpp.ini
attr iterationvars ""
attr iterationvarsd ""
attr iterationvarsf ""
attr measurement ""
attr network SensorNetwork
attr processid 21200
attr repetition 0
attr replication #0
attr resultdir results
attr runnumber 0
attr seedset 0
config image-path ../../inet-4.5.4/images
config network SensorNetwork
config description "Prima implementazione senza attaccante"
config **.wlan[*].typename WirelessInterface
config **.wlan[*].radio.typename ApskScalarRadio
config **.hasStatus true
config *.Configuratore.addStaticRoutes false
config *.Configuratore.config "xmldoc(\"Routes.xml\")"
config **.arp.typename GlobalArp
config *.IoTGateway.forwarding true
config **.maxTransmissionDuration 120ms
config **.radio.centerFrequency 2.45GHz
config **.radio.bandwidth 2.8MHz
config **.radio.transmitter.bitrate "19200 bps"
config **.radio.transmitter.headerLength 8b
config **.radio.transmitter.preambleDuration 0.0001s
config **.radio.transmitter.power 2.24mW
config **.radio.receiver.energyDetection -90dBm
config **.radio.receiver.sensitivity -100dBm
config **.radio.receiver.snirThreshold -8dB
config *.radioMedium.backgroundNoise.power -110dBm
config *.IoTSensor*.numApps 1
config *.IoTSensor*.app[0].typename UdpBasicApp
config *.IoTSensor*.app[0].destAddresses "\"10.0.0.10\""
config *.IoTSensor*.app[0].destPort 1000
config *.IoTSensor*.app[0].sendInterval 100ms
config *.IoTSensor*.app[0].messageLength 10Byte
config *.server.numApps 1
config *.server.app[0].typename UdpSink
config *.server.app[0].localPort 1000
config **.wlan[*].mac.typename BMac
config **.wlan[*].mac.headerLength 1B
config **.wlan[*].mac.slotDuration 0.025s
config **.wlan[*].queue.typename DropTailQueue
config **.wlan[*].queue.packetCapacity 20

par SensorNetwork.IoTGateway.ethg$o[0].channel typename "\"inet.node.ethernet.Eth100M\""
par SensorNetwork.IoTGateway.ethg$o[0].channel disabled false
attr mutable ""
par SensorNetwork.IoTGateway.ethg$o[0].channel delay 5e-08s
attr mutable ""
attr unit s
par SensorNetwork.IoTGateway.ethg$o[0].channel datarate 1e+08bps
attr mutable ""
attr unit bps
par SensorNetwork.IoTGateway.ethg$o[0].channel ber 0
attr mutable ""
par SensorNetwork.IoTGateway.ethg$o[0].channel per 0
attr mutable ""
par SensorNetwork.IoTGateway.ethg$o[0].channel length 10m
attr unit m
par SensorNetwork.server.ethg$o[0].channel typename "\"inet.node.ethernet.Eth100M\""
par SensorNetwork.server.ethg$o[0].channel disabled false
attr mutable ""
par SensorNetwork.server.ethg$o[0].channel delay 5e-08s
attr mutable ""
attr unit s
par SensorNetwork.server.ethg$o[0].channel datarate 1e+08bps
attr mutable ""
attr unit bps
par SensorNetwork.server.ethg$o[0].channel ber 0
attr mutable ""
par SensorNetwork.server.ethg$o[0].channel per 0
attr mutable ""
par SensorNetwork.server.ethg$o[0].channel length 10m
attr unit m
par SensorNetwork.visualizer.canvasVisualizer.sceneVisualizer typename "\"inet.visualizer.canvas.scene.SceneCanvasVisualizer\""
par SensorNetwork.visualizer.canvasVisualizer.sceneVisualizer visualizationTargetModule "\"^.^.^\""
par SensorNetwork.visualizer.canvasVisualizer.sceneVisualizer visualizationSubjectModule "\"^.^.^\""
par SensorNetwork.visualizer.canvasVisualizer.sceneVisualizer tags "\"\""
par SensorNetwork.visualizer.canvasVisualizer.sceneVisualizer physicalEnvironmentModule "\"physicalEnvironment\""
par SensorNetwork.visualizer.canvasVisualizer.sceneVisualizer networkNodeVisualizerModule "\"^.networkNodeVisualizer\""
par SensorNetwork.visualizer.canvasVisualizer.sceneVisualizer axisLength "nan m"
attr mutable ""
attr unit m
par SensorNetwork.visualizer.canvasVisualizer.sceneVisualizer animationSpeed 0
par SensorNetwork.visualizer.canvasVisualizer.sceneVisualizer sceneMinX "nan m"
attr unit m
par SensorNetwork.visualizer.canvasVisualizer.sceneVisualizer sceneMinY "nan m"
attr unit m
par SensorNetwork.visualizer.canvasVisualizer.sceneVisualizer sceneMinZ "nan m"
attr unit m
par SensorNetwork.visualizer.canvasVisualizer.sceneVisualizer sceneMaxX "nan m"
attr unit m
par SensorNetwork.visualizer.canvasVisualizer.sceneVisualizer sceneMaxY "nan m"
attr unit m
par SensorNetwork.visualizer.canvasVisualizer.sceneVisualizer sceneMaxZ "nan m"
attr unit m
par SensorNetwork.visualizer.canvasVisualizer.sceneVisualizer zIndex 0
par SensorNetwork.visualizer.canvasVisualizer.sceneVisualizer viewAngle "\"x right y down z out\""
attr mutable ""
par SensorNetwork.visualizer.canvasVisualizer.sceneVisualizer viewScale "\"1 1\""
attr mutable ""
par SensorNetwork.visualizer.canvasVisualizer.sceneVisualizer viewTranslation "\"0 0\""
attr mutable ""
par SensorNetwork.visualizer.canvasVisualizer.sceneVisualizer descriptionFigure "\"\""
par SensorNetwork.visualizer.canvasVisualizer.physicalEnvironmentVisualizer typename "\"inet.visualizer.canvas.environment.PhysicalEnvironmentCanvasVisualizer\""
par SensorNetwork.visualizer.canvasVisualizer.physicalEnvironmentVisualizer visualizationTargetModule "\"^.^.^\""
par SensorNetwork.visualizer.canvasVisualizer.physicalEnvironmentVisualizer visualizationSubjectModule "\"^.^.^\""
par SensorNetwork.visualizer.canvasVisualizer.physicalEnvironmentVisualizer tags "\"\""
par SensorNetwork.visualizer.canvasVisualizer.physicalEnvironmentVisualizer physicalEnvironmentModule "\"physicalEnvironment\""
par SensorNetwork.visualizer.canvasVisualizer.physicalEnvironmentVisualizer displayObjects true
par SensorNetwork.visualizer.canvasVisualizer.physicalEnvironmentVisualizer zIndex 0
par SensorNetwork.visualizer.canvasVisualizer.networkNodeVisualizer typename "\"inet.visualizer.canvas.scene.NetworkNodeCanvasVisualizer\""
par SensorNetwork.visualizer.canvasVisualizer.networkNodeVisualizer visualizationTargetModule "\"^.^.^\""
par SensorNetwork.visualizer.canvasVisualizer.networkNodeVisualizer visualizationSubjectModule "\"^.^.^\""
par SensorNetwork.visualizer.canvasVisualizer.networkNodeVisualizer tags "\"\""
par SensorNetwork.visualizer.canvasVisualizer.networkNodeVisualizer nodeFilter "\"*\""
attr mutable ""
par SensorNetwork.visualizer.canvasVisualizer.networkNodeVisualizer annotationSpacing 4
par SensorNetwork.visualizer.canvasVisualizer.networkNodeVisualizer placementPenalty 10
par SensorNetwork.visualizer.canvasVisualizer.networkNodeVisualizer zIndex 0
par SensorNetwork.visualizer.canvasVisualizer.networkConnectionVisualizer typename "\"inet.visualizer.canvas.scene.NetworkConnectionCanvasVisualizer\""
par SensorNetwork.visualizer.canvasVisualizer.networkConnectionVisualizer visualizationTargetModule "\"^.^.^\""
par SensorNetwork.visualizer.canvasVisualizer.networkConnectionVisualizer visualizationSubjectModule "\"^.^.^\""
par SensorNetwork.visualizer.canvasVisualizer.networkConnectionVisualizer tags "\"\""
par SensorNetwork.visualizer.canvasVisualizer.networkConnectionVisualizer displayNetworkConnections true
par SensorNetwork.visualizer.canvasVisualizer.networkConnectionVisualizer nodeFilter "\"\""
attr mutable ""
par SensorNetwork.visualizer.canvasVisualizer.networkConnectionVisualizer lineColor "\"black\""
par SensorNetwork.visualizer.canvasVisualizer.networkConnectionVisualizer lineStyle "\"solid\""
par SensorNetwork.visualizer.canvasVisualizer.networkConnectionVisualizer lineWidth 1
par SensorNetwork.visualizer.canvasVisualizer.networkConnectionVisualizer zIndex 0
par SensorNetwork.visualizer.canvasVisualizer.mobilityVisualizer typename "\"inet.visualizer.canvas.mobility.MobilityCanvasVisualizer\""
par SensorNetwork.visualizer.canvasVisualizer.mobilityVisualizer visualizationTargetModule "\"^.^.^\""
par SensorNetwork.visualizer.canvasVisualizer.mobilityVisualizer visualizationSubjectModule "\"^.^.^\""
par SensorNetwork.visualizer.canvasVisualizer.mobilityVisualizer tags "\"\""
par SensorNetwork.visualizer.canvasVisualizer.mobilityVisualizer networkNodeVisualizerModule "\"^.networkNodeVisualizer\""
par SensorNetwork.visualizer.canvasVisualizer.mobilityVisualizer displayMobility true
par SensorNetwork.visualizer.canvasVisualizer.mobilityVisualizer animationSpeed 0
par SensorNetwork.visualizer.canvasVisualizer.mobilityVisualizer moduleFilter "\"**.mobility\""
attr mutable ""
par SensorNetwork.visualizer.canvasVisualizer.mobilityVisualizer displayPositions false
par SensorNetwork.visualizer.canvasVisualizer.mobilityVisualizer positionCircleRadius 4
par SensorNetwork.visualizer.canvasVisualizer.mobilityVisualizer positionCircleLineWidth 1
par SensorNetwork.visualizer.canvasVisualizer.mobilityVisualizer positionCircleLineColor "\"dark\""
par SensorNetwork.visualizer.canvasVisualizer.mobilityVisualizer positionCircleFillColor "\"dark\""
par SensorNetwork.visualizer.canvasVisualizer.mobilityVisualizer displayOrientations false
par SensorNetwork.visualizer.canvasVisualizer.mobilityVisualizer orientationPieRadius 32
par SensorNetwork.visualizer.canvasVisualizer.mobilityVisualizer orientationPieSize 0.2
par SensorNetwork.visualizer.canvasVisualizer.mobilityVisualizer orientationPieOpacity 0.25
par SensorNetwork.visualizer.canvasVisualizer.mobilityVisualizer orientationLineColor "\"black\""
par SensorNetwork.visualizer.canvasVisualizer.mobilityVisualizer orientationLineStyle "\"solid\""
par SensorNetwork.visualizer.canvasVisualizer.mobilityVisualizer orientationLineWidth 1
par SensorNetwork.visualizer.canvasVisualizer.mobilityVisualizer orientationFillColor "\"blue\""
par SensorNetwork.visualizer.canvasVisualizer.mobilityVisualizer displayVelocities false
par SensorNetwork.visualizer.canvasVisualizer.mobilityVisualizer velocityArrowScale 1
par SensorNetwork.visualizer.canvasVisualizer.mobilityVisualizer velocityLineColor "\"black\""
par SensorNetwork.visualizer.canvasVisualizer.mobilityVisualizer velocityLineStyle "\"solid\""
par SensorNetwork.visualizer.canvasVisualizer.mobilityVisualizer velocityLineWidth 1
par SensorNetwork.visualizer.canvasVisualizer.mobilityVisualizer displayMovementTrails false
par SensorNetwork.visualizer.canvasVisualizer.mobilityVisualizer movementTrailLineColor "\"dark\""
par SensorNetwork.visualizer.canvasVisualizer.mobilityVisualizer movementTrailLineStyle "\"solid\""
par SensorNetwork.visualizer.canvasVisualizer.mobilityVisualizer movementTrailLineWidth 1
par SensorNetwork.visualizer.canvasVisualizer.mobilityVisualizer trailLength 100
par SensorNetwork.visualizer.canvasVisualizer.mobilityVisualizer zIndex 0
par SensorNetwork.visualizer.canvasVisualizer.statisticVisualizer typename "\"inet.visualizer.canvas.common.StatisticCanvasVisualizer\""
par SensorNetwork.visualizer.canvasVisualizer.statisticVisualizer visualizationTargetModule "\"^.^.^\""
par SensorNetwork.visualizer.canvasVisualizer.statisticVisualizer visualizationSubjectModule "\"^.^.^\""
par SensorNetwork.visualizer.canvasVisualizer.statisticVisualizer tags "\"\""
par SensorNetwork.visualizer.canvasVisualizer.statisticVisualizer networkNodeVisualizerModule "\"^.networkNodeVisualizer\""
par SensorNetwork.visualizer.canvasVisualizer.statisticVisualizer displayStatistics true
par SensorNetwork.visualizer.canvasVisualizer.statisticVisualizer signalName "\"\""
par SensorNetwork.visualizer.canvasVisualizer.statisticVisualizer statisticName "\"\""
par SensorNetwork.visualizer.canvasVisualizer.statisticVisualizer statisticUnit "\"\""
par SensorNetwork.visualizer.canvasVisualizer.statisticVisualizer statisticExpression "\"\""
par SensorNetwork.visualizer.canvasVisualizer.statisticVisualizer sourceFilter "\"**\""
attr mutable ""
par SensorNetwork.visualizer.canvasVisualizer.statisticVisualizer format "\"%n: %v %u\""
attr mutable ""
par SensorNetwork.visualizer.canvasVisualizer.statisticVisualizer unit "\"\""
par SensorNetwork.visualizer.canvasVisualizer.statisticVisualizer font "\"<default>\""
par SensorNetwork.visualizer.canvasVisualizer.statisticVisualizer textColor "\"black\""
par SensorNetwork.visualizer.canvasVisualizer.statisticVisualizer backgroundColor "\"white\""
par SensorNetwork.visualizer.canvasVisualizer.statisticVisualizer opacity 1
par SensorNetwork.visualizer.canvasVisualizer.statisticVisualizer placementHint "\"top\""
par SensorNetwork.visualizer.canvasVisualizer.statisticVisualizer placementPriority 0
par SensorNetwork.visualizer.canvasVisualizer.statisticVisualizer zIndex 10
par SensorNetwork.visualizer.canvasVisualizer.statisticVisualizer propertyName "\"\""
par SensorNetwork.visualizer.canvasVisualizer.statisticVisualizer propertyIndex "\"\""
par SensorNetwork.visualizer.canvasVisualizer.infoVisualizer typename "\"inet.visualizer.canvas.common.InfoCanvasVisualizer\""
par SensorNetwork.visualizer.canvasVisualizer.infoVisualizer visualizationTargetModule "\"^.^.^\""
par SensorNetwork.visualizer.canvasVisualizer.infoVisualizer visualizationSubjectModule "\"^.^.^\""
par SensorNetwork.visualizer.canvasVisualizer.infoVisualizer tags "\"\""
par SensorNetwork.visualizer.canvasVisualizer.infoVisualizer networkNodeVisualizerModule "\"^.networkNodeVisualizer\""
par SensorNetwork.visualizer.canvasVisualizer.infoVisualizer displayInfos true
par SensorNetwork.visualizer.canvasVisualizer.infoVisualizer modules "\"\""
attr mutable ""
par SensorNetwork.visualizer.canvasVisualizer.infoVisualizer format "\"%t\""
attr mutable ""
par SensorNetwork.visualizer.canvasVisualizer.infoVisualizer font "\"<default>\""
par SensorNetwork.visualizer.canvasVisualizer.infoVisualizer textColor "\"black\""
par SensorNetwork.visualizer.canvasVisualizer.infoVisualizer backgroundColor "\"white\""
par SensorNetwork.visualizer.canvasVisualizer.infoVisualizer opacity 1
par SensorNetwork.visualizer.canvasVisualizer.infoVisualizer placementHint "\"top\""
par SensorNetwork.visualizer.canvasVisualizer.infoVisualizer placementPriority 0
par SensorNetwork.visualizer.canvasVisualizer.infoVisualizer zIndex 10
par SensorNetwork.visualizer.canvasVisualizer.energyStorageVisualizer typename "\"inet.visualizer.canvas.power.EnergyStorageCanvasVisualizer\""
par SensorNetwork.visualizer.canvasVisualizer.energyStorageVisualizer visualizationTargetModule "\"^.^.^\""
par SensorNetwork.visualizer.canvasVisualizer.energyStorageVisualizer visualizationSubjectModule "\"^.^.^\""
par SensorNetwork.visualizer.canvasVisualizer.energyStorageVisualizer tags "\"\""
par SensorNetwork.visualizer.canvasVisualizer.energyStorageVisualizer networkNodeVisualizerModule "\"^.networkNodeVisualizer\""
par SensorNetwork.visualizer.canvasVisualizer.energyStorageVisualizer displayEnergyStorages false
par SensorNetwork.visualizer.canvasVisualizer.energyStorageVisualizer energyStorageFilter "\"**\""
par SensorNetwork.visualizer.canvasVisualizer.energyStorageVisualizer color "\"green\""
par SensorNetwork.visualizer.canvasVisualizer.energyStorageVisualizer width 8
par SensorNetwork.visualizer.canvasVisualizer.energyStorageVisualizer height 24
par SensorNetwork.visualizer.canvasVisualizer.energyStorageVisualizer spacing 2
par SensorNetwork.visualizer.canvasVisualizer.energyStorageVisualizer placementHint "\"right\""
par SensorNetwork.visualizer.canvasVisualizer.energyStorageVisualizer placementPriority 0
par SensorNetwork.visualizer.canvasVisualizer.energyStorageVisualizer zIndex 10
par SensorNetwork.visualizer.canvasVisualizer.mediumVisualizer typename "\"inet.visualizer.canvas.physicallayer.MediumCanvasVisualizer\""
par SensorNetwork.visualizer.canvasVisualizer.mediumVisualizer visualizationTargetModule "\"^.^.^\""
par SensorNetwork.visualizer.canvasVisualizer.mediumVisualizer visualizationSubjectModule "\"^.^.^\""
par SensorNetwork.visualizer.canvasVisualizer.mediumVisualizer tags "\"\""
par SensorNetwork.visualizer.canvasVisualizer.mediumVisualizer mediumModule "\"radioMedium\""
par SensorNetwork.visualizer.canvasVisualizer.mediumVisualizer networkNodeVisualizerModule "\"^.networkNodeVisualizer\""
par SensorNetwork.visualizer.canvasVisualizer.mediumVisualizer nodeFilter "\"*\""
attr mutable ""
par SensorNetwork.visualizer.canvasVisualizer.mediumVisualizer interfaceFilter "\"*\""
attr mutable ""
par SensorNetwork.visualizer.canvasVisualizer.mediumVisualizer packetFilter "(omnetpp::cValueHolder)holder: \"*\""
attr mutable ""
par SensorNetwork.visualizer.canvasVisualizer.mediumVisualizer displaySignals false
par SensorNetwork.visualizer.canvasVisualizer.mediumVisualizer signalColor "\"dark\""
par SensorNetwork.visualizer.canvasVisualizer.mediumVisualizer signalPropagationAnimationSpeed "nan "
attr mutable ""
par SensorNetwork.visualizer.canvasVisualizer.mediumVisualizer signalPropagationAnimationTime 1s
attr unit s
par SensorNetwork.visualizer.canvasVisualizer.mediumVisualizer signalPropagationAdditionalTime 0s
attr unit s
par SensorNetwork.visualizer.canvasVisualizer.mediumVisualizer signalTransmissionAnimationSpeed "nan "
attr mutable ""
par SensorNetwork.visualizer.canvasVisualizer.mediumVisualizer signalTransmissionAnimationTime 1s
attr unit s
par SensorNetwork.visualizer.canvasVisualizer.mediumVisualizer signalAnimationSpeedChangeTimeMode "\"realTime\""
attr enum realTime,animationTime,simulationTime
par SensorNetwork.visualizer.canvasVisualizer.mediumVisualizer signalAnimationSpeedChangeTime 1s
attr unit s
par SensorNetwork.visualizer.canvasVisualizer.mediumVisualizer displaySignalDepartures false
par SensorNetwork.visualizer.canvasVisualizer.mediumVisualizer signalDepartureImage "\"misc/signal_departure.png\""
par SensorNetwork.visualizer.canvasVisualizer.mediumVisualizer signalDeparturePlacementHint "\"topCenter\""
par SensorNetwork.visualizer.canvasVisualizer.mediumVisualizer signalDeparturePlacementPriority 1
par SensorNetwork.visualizer.canvasVisualizer.mediumVisualizer displaySignalArrivals false
par SensorNetwork.visualizer.canvasVisualizer.mediumVisualizer signalArrivalImage "\"misc/signal_arrival.png\""
par SensorNetwork.visualizer.canvasVisualizer.mediumVisualizer signalArrivalPlacementHint "\"topCenter\""
par SensorNetwork.visualizer.canvasVisualizer.mediumVisualizer signalArrivalPlacementPriority -1
par SensorNetwork.visualizer.canvasVisualizer.mediumVisualizer displayCommunicationRanges false
par SensorNetwork.visualizer.canvasVisualizer.mediumVisualizer communicationRangeLineColor "\"blue\""
par SensorNetwork.visualizer.canvasVisualizer.mediumVisualizer communicationRangeLineStyle "\"solid\""
par SensorNetwork.visualizer.canvasVisualizer.mediumVisualizer communicationRangeLineWidth 1
par SensorNetwork.visualizer.canvasVisualizer.mediumVisualizer displayInterferenceRanges false
par SensorNetwork.visualizer.canvasVisualizer.mediumVisualizer interferenceRangeLineColor "\"gray\""
par SensorNetwork.visualizer.canvasVisualizer.mediumVisualizer interferenceRangeLineStyle "\"solid\""
par SensorNetwork.visualizer.canvasVisualizer.mediumVisualizer interferenceRangeLineWidth 1
par SensorNetwork.visualizer.canvasVisualizer.mediumVisualizer autoPowerAxis true
par SensorNetwork.visualizer.canvasVisualizer.mediumVisualizer signalMinPower "inf dBmW"
attr unit dBmW
par SensorNetwork.visualizer.canvasVisualizer.mediumVisualizer signalMaxPower 0dBmW
attr unit dBmW
par SensorNetwork.visualizer.canvasVisualizer.mediumVisualizer signalMinPowerDensity "inf dBmWpMHz"
attr unit dBmWpMHz
par SensorNetwork.visualizer.canvasVisualizer.mediumVisualizer signalMaxPowerDensity "-inf dBmWpMHz"
attr unit dBmWpMHz
par SensorNetwork.visualizer.canvasVisualizer.mediumVisualizer autoTimeAxis true
par SensorNetwork.visualizer.canvasVisualizer.mediumVisualizer signalMinTime 0s
attr unit s
par SensorNetwork.visualizer.canvasVisualizer.mediumVisualizer signalMaxTime 0s
attr unit s
par SensorNetwork.visualizer.canvasVisualizer.mediumVisualizer autoFrequencyAxis true
par SensorNetwork.visualizer.canvasVisualizer.mediumVisualizer signalMinFrequency "inf Hz"
attr unit Hz
par SensorNetwork.visualizer.canvasVisualizer.mediumVisualizer signalMaxFrequency "-inf Hz"
attr unit Hz
par SensorNetwork.visualizer.canvasVisualizer.mediumVisualizer displayMainPowerDensityMap false
par SensorNetwork.visualizer.canvasVisualizer.mediumVisualizer mainPowerDensityMapPixmapDensity 1
par SensorNetwork.visualizer.canvasVisualizer.mediumVisualizer mainPowerDensityMapMinX 0
par SensorNetwork.visualizer.canvasVisualizer.mediumVisualizer mainPowerDensityMapMaxX "nan "
par SensorNetwork.visualizer.canvasVisualizer.mediumVisualizer mainPowerDensityMapMinY 0
par SensorNetwork.visualizer.canvasVisualizer.mediumVisualizer mainPowerDensityMapMaxY "nan "
par SensorNetwork.visualizer.canvasVisualizer.mediumVisualizer mainPowerDensityMapZ 0
par SensorNetwork.visualizer.canvasVisualizer.mediumVisualizer mainPowerDensityMapFigureXTickCount 3
par SensorNetwork.visualizer.canvasVisualizer.mediumVisualizer mainPowerDensityMapFigureYTickCount 3
par SensorNetwork.visualizer.canvasVisualizer.mediumVisualizer displayPowerDensityMaps false
par SensorNetwork.visualizer.canvasVisualizer.mediumVisualizer powerDensityMapMode "\"auto\""
attr enum total,signal,auto
par SensorNetwork.visualizer.canvasVisualizer.mediumVisualizer powerDensityMapPixelMode "\"mean\""
attr enum sample,partition,mean
par SensorNetwork.visualizer.canvasVisualizer.mediumVisualizer powerDensityMapApproximationSize 10
par SensorNetwork.visualizer.canvasVisualizer.mediumVisualizer powerDensityMapCenterFrequency "nan Hz"
attr mutable ""
attr unit Hz
par SensorNetwork.visualizer.canvasVisualizer.mediumVisualizer powerDensityMapBandwidth 0Hz
attr mutable ""
attr unit Hz
par SensorNetwork.visualizer.canvasVisualizer.mediumVisualizer powerDensityMapFigureWidth 200
par SensorNetwork.visualizer.canvasVisualizer.mediumVisualizer powerDensityMapFigureHeight 120
par SensorNetwork.visualizer.canvasVisualizer.mediumVisualizer powerDensityMapPixmapWidth 200
par SensorNetwork.visualizer.canvasVisualizer.mediumVisualizer powerDensityMapPixmapHeight 120
par SensorNetwork.visualizer.canvasVisualizer.mediumVisualizer powerDensityMapZ 0
par SensorNetwork.visualizer.canvasVisualizer.mediumVisualizer powerDensityMapFigureXTickCount 3
par SensorNetwork.visualizer.canvasVisualizer.mediumVisualizer powerDensityMapFigureYTickCount 3
par SensorNetwork.visualizer.canvasVisualizer.mediumVisualizer displaySpectrums false
par SensorNetwork.visualizer.canvasVisualizer.mediumVisualizer spectrumMode "\"auto\""
attr enum total,signal,auto
par SensorNetwork.visualizer.canvasVisualizer.mediumVisualizer spectrumFigureWidth 200
par SensorNetwork.visualizer.canvasVisualizer.mediumVisualizer spectrumFigureHeight 120
par SensorNetwork.visualizer.canvasVisualizer.mediumVisualizer spectrumFigureXTickCount 3
par SensorNetwork.visualizer.canvasVisualizer.mediumVisualizer spectrumFigureYTickCount 5
par SensorNetwork.visualizer.canvasVisualizer.mediumVisualizer spectrumFigureInterpolationSize 5
par SensorNetwork.visualizer.canvasVisualizer.mediumVisualizer spectrumPlacementHint "\"bottomCenter\""
par SensorNetwork.visualizer.canvasVisualizer.mediumVisualizer spectrumPlacementPriority -1
par SensorNetwork.visualizer.canvasVisualizer.mediumVisualizer displaySpectrograms false
par SensorNetwork.visualizer.canvasVisualizer.mediumVisualizer spectrogramMode "\"auto\""
attr enum total,signal,auto
par SensorNetwork.visualizer.canvasVisualizer.mediumVisualizer spectrogramPixelMode "\"mean\""
attr enum sample,partition,mean
par SensorNetwork.visualizer.canvasVisualizer.mediumVisualizer spectrogramFigureWidth 200
par SensorNetwork.visualizer.canvasVisualizer.mediumVisualizer spectrogramFigureHeight 120
par SensorNetwork.visualizer.canvasVisualizer.mediumVisualizer spectrogramPixmapWidth 200
par SensorNetwork.visualizer.canvasVisualizer.mediumVisualizer spectrogramPixmapHeight 120
par SensorNetwork.visualizer.canvasVisualizer.mediumVisualizer spectrogramFigureXTickCount 3
par SensorNetwork.visualizer.canvasVisualizer.mediumVisualizer spectrogramFigureYTickCount 5
par SensorNetwork.visualizer.canvasVisualizer.mediumVisualizer spectrogramPlacementHint "\"bottomCenter\""
par SensorNetwork.visualizer.canvasVisualizer.mediumVisualizer spectrogramPlacementPriority -1
par SensorNetwork.visualizer.canvasVisualizer.mediumVisualizer zIndex 0
par SensorNetwork.visualizer.canvasVisualizer.mediumVisualizer signalShape "\"ring\""
attr enum ring,sphere
par SensorNetwork.visualizer.canvasVisualizer.mediumVisualizer signalOpacity 0.5
par SensorNetwork.visualizer.canvasVisualizer.mediumVisualizer signalRingCount 20
par SensorNetwork.visualizer.canvasVisualizer.mediumVisualizer signalRingSize 50m
attr unit m
par SensorNetwork.visualizer.canvasVisualizer.mediumVisualizer signalFadingDistance 50m
attr unit m
par SensorNetwork.visualizer.canvasVisualizer.mediumVisualizer signalFadingFactor 1.2
par SensorNetwork.visualizer.canvasVisualizer.mediumVisualizer signalWaveCount 20
par SensorNetwork.visualizer.canvasVisualizer.mediumVisualizer signalWaveLength 50m
attr unit m
par SensorNetwork.visualizer.canvasVisualizer.mediumVisualizer signalWaveWidth 10m
attr unit m
par SensorNetwork.visualizer.canvasVisualizer.mediumVisualizer signalWaveFadingAnimationSpeedFactor 1
par SensorNetwork.visualizer.canvasVisualizer.mediumVisualizer displayCommunicationHeat false
par SensorNetwork.visualizer.canvasVisualizer.obstacleLossVisualizer typename "\"inet.visualizer.canvas.physicallayer.TracingObstacleLossCanvasVisualizer\""
par SensorNetwork.visualizer.canvasVisualizer.obstacleLossVisualizer visualizationTargetModule "\"^.^.^\""
par SensorNetwork.visualizer.canvasVisualizer.obstacleLossVisualizer visualizationSubjectModule "\"^.^.^\""
par SensorNetwork.visualizer.canvasVisualizer.obstacleLossVisualizer tags "\"\""
par SensorNetwork.visualizer.canvasVisualizer.obstacleLossVisualizer displayIntersections false
par SensorNetwork.visualizer.canvasVisualizer.obstacleLossVisualizer intersectionLineColor "\"red\""
par SensorNetwork.visualizer.canvasVisualizer.obstacleLossVisualizer intersectionLineStyle "\"solid\""
par SensorNetwork.visualizer.canvasVisualizer.obstacleLossVisualizer intersectionLineWidth 1
par SensorNetwork.visualizer.canvasVisualizer.obstacleLossVisualizer displayFaceNormalVectors false
par SensorNetwork.visualizer.canvasVisualizer.obstacleLossVisualizer faceNormalLineColor "\"grey\""
par SensorNetwork.visualizer.canvasVisualizer.obstacleLossVisualizer faceNormalLineStyle "\"solid\""
par SensorNetwork.visualizer.canvasVisualizer.obstacleLossVisualizer faceNormalLineWidth 1
par SensorNetwork.visualizer.canvasVisualizer.obstacleLossVisualizer fadeOutMode "\"realTime\""
attr enum realTime,animationTime,simulationTime
par SensorNetwork.visualizer.canvasVisualizer.obstacleLossVisualizer fadeOutTime 1s
attr unit s
par SensorNetwork.visualizer.canvasVisualizer.obstacleLossVisualizer fadeOutAnimationSpeed 0
par SensorNetwork.visualizer.canvasVisualizer.obstacleLossVisualizer zIndex 0
par SensorNetwork.visualizer.canvasVisualizer.packetDropVisualizer typename "\"inet.visualizer.canvas.common.PacketDropCanvasVisualizer\""
par SensorNetwork.visualizer.canvasVisualizer.packetDropVisualizer visualizationTargetModule "\"^.^.^\""
par SensorNetwork.visualizer.canvasVisualizer.packetDropVisualizer visualizationSubjectModule "\"^.^.^\""
par SensorNetwork.visualizer.canvasVisualizer.packetDropVisualizer tags "\"\""
par SensorNetwork.visualizer.canvasVisualizer.packetDropVisualizer displayPacketDrops false
par SensorNetwork.visualizer.canvasVisualizer.packetDropVisualizer nodeFilter "\"*\""
attr mutable ""
par SensorNetwork.visualizer.canvasVisualizer.packetDropVisualizer interfaceFilter "\"*\""
attr mutable ""
par SensorNetwork.visualizer.canvasVisualizer.packetDropVisualizer packetFilter "(omnetpp::cValueHolder)holder: \"*\""
attr mutable ""
par SensorNetwork.visualizer.canvasVisualizer.packetDropVisualizer detailsFilter "\"*\""
attr mutable ""
par SensorNetwork.visualizer.canvasVisualizer.packetDropVisualizer icon "\"msg/packet_s\""
par SensorNetwork.visualizer.canvasVisualizer.packetDropVisualizer iconTintAmount 1
par SensorNetwork.visualizer.canvasVisualizer.packetDropVisualizer iconTintColor "\"dark\""
par SensorNetwork.visualizer.canvasVisualizer.packetDropVisualizer labelFormat "\"%n\""
attr mutable ""
par SensorNetwork.visualizer.canvasVisualizer.packetDropVisualizer labelFont "\"<default>\""
par SensorNetwork.visualizer.canvasVisualizer.packetDropVisualizer labelColor "\"black\""
par SensorNetwork.visualizer.canvasVisualizer.packetDropVisualizer fadeOutMode "\"realTime\""
attr enum realTime,animationTime,simulationTime
par SensorNetwork.visualizer.canvasVisualizer.packetDropVisualizer fadeOutTime 1s
attr unit s
par SensorNetwork.visualizer.canvasVisualizer.packetDropVisualizer fadeOutAnimationSpeed 0
par SensorNetwork.visualizer.canvasVisualizer.packetDropVisualizer zIndex 10
par SensorNetwork.visualizer.canvasVisualizer.packetDropVisualizer dx 32
par SensorNetwork.visualizer.canvasVisualizer.packetDropVisualizer dy 64
par SensorNetwork.visualizer.canvasVisualizer.packetFlowVisualizer typename "\"inet.visualizer.canvas.flow.PacketFlowCanvasVisualizer\""
par SensorNetwork.visualizer.canvasVisualizer.packetFlowVisualizer visualizationTargetModule "\"^.^.^\""
par SensorNetwork.visualizer.canvasVisualizer.packetFlowVisualizer visualizationSubjectModule "\"^.^.^\""
par SensorNetwork.visualizer.canvasVisualizer.packetFlowVisualizer tags "\"\""
par SensorNetwork.visualizer.canvasVisualizer.packetFlowVisualizer displayRoutes false
par SensorNetwork.visualizer.canvasVisualizer.packetFlowVisualizer startPathSignal "\"packetFlowStarted\""
par SensorNetwork.visualizer.canvasVisualizer.packetFlowVisualizer extendPathSignal "\"packetReceivedFromLower\""
par SensorNetwork.visualizer.canvasVisualizer.packetFlowVisualizer endPathSignal "\"packetFlowEnded\""
par SensorNetwork.visualizer.canvasVisualizer.packetFlowVisualizer nodeFilter "\"*\""
attr mutable ""
par SensorNetwork.visualizer.canvasVisualizer.packetFlowVisualizer packetFilter "(omnetpp::cValueHolder)holder: \"*\""
attr mutable ""
par SensorNetwork.visualizer.canvasVisualizer.packetFlowVisualizer lineColor "\"dark\""
par SensorNetwork.visualizer.canvasVisualizer.packetFlowVisualizer lineStyle "\"dashed\""
par SensorNetwork.visualizer.canvasVisualizer.packetFlowVisualizer lineWidth 3
par SensorNetwork.visualizer.canvasVisualizer.packetFlowVisualizer lineSmooth false
par SensorNetwork.visualizer.canvasVisualizer.packetFlowVisualizer lineShift 16
par SensorNetwork.visualizer.canvasVisualizer.packetFlowVisualizer lineShiftMode "\"normal\""
par SensorNetwork.visualizer.canvasVisualizer.packetFlowVisualizer lineContactSpacing 3
par SensorNetwork.visualizer.canvasVisualizer.packetFlowVisualizer lineContactMode "\"rectangular\""
attr enum circular,rectangular
par SensorNetwork.visualizer.canvasVisualizer.packetFlowVisualizer labelFormat "\"%L %p pk (%l)\""
par SensorNetwork.visualizer.canvasVisualizer.packetFlowVisualizer labelFont "\"<default>, 8px\""
par SensorNetwork.visualizer.canvasVisualizer.packetFlowVisualizer labelColor "\"\""
par SensorNetwork.visualizer.canvasVisualizer.packetFlowVisualizer fadeOutMode "\"realTime\""
attr enum realTime,animationTime,simulationTime
par SensorNetwork.visualizer.canvasVisualizer.packetFlowVisualizer fadeOutTime 0s
attr unit s
par SensorNetwork.visualizer.canvasVisualizer.packetFlowVisualizer fadeOutAnimationSpeed 0
par SensorNetwork.visualizer.canvasVisualizer.packetFlowVisualizer zIndex 4
par SensorNetwork.visualizer.canvasVisualizer.queueVisualizer typename "\"inet.visualizer.canvas.common.QueueCanvasVisualizer\""
par SensorNetwork.visualizer.canvasVisualizer.queueVisualizer visualizationTargetModule "\"^.^.^\""
par SensorNetwork.visualizer.canvasVisualizer.queueVisualizer visualizationSubjectModule "\"^.^.^\""
par SensorNetwork.visualizer.canvasVisualizer.queueVisualizer tags "\"\""
par SensorNetwork.visualizer.canvasVisualizer.queueVisualizer networkNodeVisualizerModule "\"^.networkNodeVisualizer\""
par SensorNetwork.visualizer.canvasVisualizer.queueVisualizer displayQueues false
par SensorNetwork.visualizer.canvasVisualizer.queueVisualizer queueFilter "\"**\""
par SensorNetwork.visualizer.canvasVisualizer.queueVisualizer color "\"blue\""
par SensorNetwork.visualizer.canvasVisualizer.queueVisualizer width 8
par SensorNetwork.visualizer.canvasVisualizer.queueVisualizer height 24
par SensorNetwork.visualizer.canvasVisualizer.queueVisualizer spacing 2
par SensorNetwork.visualizer.canvasVisualizer.queueVisualizer placementHint "\"right\""
par SensorNetwork.visualizer.canvasVisualizer.queueVisualizer placementPriority 0
par SensorNetwork.visualizer.canvasVisualizer.queueVisualizer zIndex 10
par SensorNetwork.visualizer.canvasVisualizer.gateScheduleVisualizer typename "\"inet.visualizer.canvas.common.GateScheduleCanvasVisualizer\""
par SensorNetwork.visualizer.canvasVisualizer.gateScheduleVisualizer visualizationTargetModule "\"^.^.^\""
par SensorNetwork.visualizer.canvasVisualizer.gateScheduleVisualizer visualizationSubjectModule "\"^.^.^\""
par SensorNetwork.visualizer.canvasVisualizer.gateScheduleVisualizer tags "\"\""
par SensorNetwork.visualizer.canvasVisualizer.gateScheduleVisualizer networkNodeVisualizerModule "\"^.networkNodeVisualizer\""
par SensorNetwork.visualizer.canvasVisualizer.gateScheduleVisualizer displayGateSchedules false
par SensorNetwork.visualizer.canvasVisualizer.gateScheduleVisualizer labelFormat "\"%i %D\""
par SensorNetwork.visualizer.canvasVisualizer.gateScheduleVisualizer gateFilter "\"**\""
par SensorNetwork.visualizer.canvasVisualizer.gateScheduleVisualizer width 100
par SensorNetwork.visualizer.canvasVisualizer.gateScheduleVisualizer height 8
par SensorNetwork.visualizer.canvasVisualizer.gateScheduleVisualizer spacing 2
par SensorNetwork.visualizer.canvasVisualizer.gateScheduleVisualizer placementHint "\"right\""
par SensorNetwork.visualizer.canvasVisualizer.gateScheduleVisualizer placementPriority 0
par SensorNetwork.visualizer.canvasVisualizer.gateScheduleVisualizer displayDuration 0s
attr mutable ""
attr unit s
par SensorNetwork.visualizer.canvasVisualizer.gateScheduleVisualizer currentTimePosition 50
par SensorNetwork.visualizer.canvasVisualizer.gateScheduleVisualizer zIndex 10
par SensorNetwork.visualizer.canvasVisualizer.radioVisualizer typename "\"inet.visualizer.canvas.physicallayer.RadioCanvasVisualizer\""
par SensorNetwork.visualizer.canvasVisualizer.radioVisualizer visualizationTargetModule "\"^.^.^\""
par SensorNetwork.visualizer.canvasVisualizer.radioVisualizer visualizationSubjectModule "\"^.^.^\""
par SensorNetwork.visualizer.canvasVisualizer.radioVisualizer tags "\"\""
par SensorNetwork.visualizer.canvasVisualizer.radioVisualizer networkNodeVisualizerModule "\"^.networkNodeVisualizer\""
par SensorNetwork.visualizer.canvasVisualizer.radioVisualizer displayRadios false
par SensorNetwork.visualizer.canvasVisualizer.radioVisualizer displayRadioMode true
par SensorNetwork.visualizer.canvasVisualizer.radioVisualizer displayReceptionState true
par SensorNetwork.visualizer.canvasVisualizer.radioVisualizer displayTransmissionState true
par SensorNetwork.visualizer.canvasVisualizer.radioVisualizer displayAntennaLobes false
par SensorNetwork.visualizer.canvasVisualizer.radioVisualizer radioFilter "\"**\""
attr mutable ""
par SensorNetwork.visualizer.canvasVisualizer.radioVisualizer radioModeImages "\"block/process_vs block/timer_vs block/wrx_vs block/wtx_vs block/wrxtx_vs block/cogwheel_vs\""
par SensorNetwork.visualizer.canvasVisualizer.radioVisualizer receptionStateImages "\"- - misc/receiving misc/receiving\""
par SensorNetwork.visualizer.canvasVisualizer.radioVisualizer transmissionStateImages "\"- - misc/transmitting\""
par SensorNetwork.visualizer.canvasVisualizer.radioVisualizer width 16
par SensorNetwork.visualizer.canvasVisualizer.radioVisualizer height 16
par SensorNetwork.visualizer.canvasVisualizer.radioVisualizer placementHint "\"bottomRight\""
par SensorNetwork.visualizer.canvasVisualizer.radioVisualizer placementPriority 0
par SensorNetwork.visualizer.canvasVisualizer.radioVisualizer antennaLobeNormalize false
par SensorNetwork.visualizer.canvasVisualizer.radioVisualizer antennaLobeRelativeLabels false
par SensorNetwork.visualizer.canvasVisualizer.radioVisualizer antennaLobePlaneGlobal true
par SensorNetwork.visualizer.canvasVisualizer.radioVisualizer antennaLobePlane "\"view\""
attr enum view,xy,xz,yz
par SensorNetwork.visualizer.canvasVisualizer.radioVisualizer antennaLobeMode "\"logarithmic\""
attr enum logarithmic,linear
par SensorNetwork.visualizer.canvasVisualizer.radioVisualizer antennaLobeLogarithmicBase 10
par SensorNetwork.visualizer.canvasVisualizer.radioVisualizer antennaLobeLogarithmicScale 100
par SensorNetwork.visualizer.canvasVisualizer.radioVisualizer antennaLobeRadius 100
par SensorNetwork.visualizer.canvasVisualizer.radioVisualizer antennaLobeStep 10deg
attr unit deg
par SensorNetwork.visualizer.canvasVisualizer.radioVisualizer antennaLobeOpacity 0.25
par SensorNetwork.visualizer.canvasVisualizer.radioVisualizer antennaLobeLineSmooth true
par SensorNetwork.visualizer.canvasVisualizer.radioVisualizer antennaLobeLineColor "\"black\""
par SensorNetwork.visualizer.canvasVisualizer.radioVisualizer antennaLobeLineStyle "\"solid\""
par SensorNetwork.visualizer.canvasVisualizer.radioVisualizer antennaLobeLineWidth 1
par SensorNetwork.visualizer.canvasVisualizer.radioVisualizer antennaLobeFillColor "\"white\""
par SensorNetwork.visualizer.canvasVisualizer.radioVisualizer zIndex 10
par SensorNetwork.visualizer.canvasVisualizer.physicalLinkVisualizer typename "\"inet.visualizer.canvas.physicallayer.PhysicalLinkCanvasVisualizer\""
par SensorNetwork.visualizer.canvasVisualizer.physicalLinkVisualizer visualizationTargetModule "\"^.^.^\""
par SensorNetwork.visualizer.canvasVisualizer.physicalLinkVisualizer visualizationSubjectModule "\"^.^.^\""
par SensorNetwork.visualizer.canvasVisualizer.physicalLinkVisualizer tags "\"\""
par SensorNetwork.visualizer.canvasVisualizer.physicalLinkVisualizer displayLinks false
par SensorNetwork.visualizer.canvasVisualizer.physicalLinkVisualizer activityLevel "\"service\""
attr enum service,peer,protocol
par SensorNetwork.visualizer.canvasVisualizer.physicalLinkVisualizer nodeFilter "\"*\""
attr mutable ""
par SensorNetwork.visualizer.canvasVisualizer.physicalLinkVisualizer interfaceFilter "\"*\""
attr mutable ""
par SensorNetwork.visualizer.canvasVisualizer.physicalLinkVisualizer packetFilter "(omnetpp::cValueHolder)holder: \"*\""
attr mutable ""
par SensorNetwork.visualizer.canvasVisualizer.physicalLinkVisualizer lineColor "\"olive\""
par SensorNetwork.visualizer.canvasVisualizer.physicalLinkVisualizer lineStyle "\"dotted\""
par SensorNetwork.visualizer.canvasVisualizer.physicalLinkVisualizer lineWidth 3
par SensorNetwork.visualizer.canvasVisualizer.physicalLinkVisualizer lineShift 16
par SensorNetwork.visualizer.canvasVisualizer.physicalLinkVisualizer lineShiftMode "\"normal\""
par SensorNetwork.visualizer.canvasVisualizer.physicalLinkVisualizer lineContactSpacing 3
par SensorNetwork.visualizer.canvasVisualizer.physicalLinkVisualizer lineContactMode "\"rectangular\""
attr enum circular,rectangular
par SensorNetwork.visualizer.canvasVisualizer.physicalLinkVisualizer labelFormat "\"%n\""
par SensorNetwork.visualizer.canvasVisualizer.physicalLinkVisualizer labelFont "\"<default>, 8px\""
par SensorNetwork.visualizer.canvasVisualizer.physicalLinkVisualizer labelColor "\"olive\""
par SensorNetwork.visualizer.canvasVisualizer.physicalLinkVisualizer fadeOutMode "\"realTime\""
attr enum realTime,animationTime,simulationTime
par SensorNetwork.visualizer.canvasVisualizer.physicalLinkVisualizer fadeOutTime 1s
attr unit s
par SensorNetwork.visualizer.canvasVisualizer.physicalLinkVisualizer fadeOutAnimationSpeed 0
par SensorNetwork.visualizer.canvasVisualizer.physicalLinkVisualizer holdAnimationTime 0s
attr unit s
par SensorNetwork.visualizer.canvasVisualizer.physicalLinkVisualizer zIndex 1
par SensorNetwork.visualizer.canvasVisualizer.interfaceTableVisualizer typename "\"inet.visualizer.canvas.linklayer.InterfaceTableCanvasVisualizer\""
par SensorNetwork.visualizer.canvasVisualizer.interfaceTableVisualizer visualizationTargetModule "\"^.^.^\""
par SensorNetwork.visualizer.canvasVisualizer.interfaceTableVisualizer visualizationSubjectModule "\"^.^.^\""
par SensorNetwork.visualizer.canvasVisualizer.interfaceTableVisualizer tags "\"\""
par SensorNetwork.visualizer.canvasVisualizer.interfaceTableVisualizer networkNodeVisualizerModule "\"^.networkNodeVisualizer\""
par SensorNetwork.visualizer.canvasVisualizer.interfaceTableVisualizer displayInterfaceTables false
par SensorNetwork.visualizer.canvasVisualizer.interfaceTableVisualizer displayWiredInterfacesAtConnections true
par SensorNetwork.visualizer.canvasVisualizer.interfaceTableVisualizer displayBackground false
par SensorNetwork.visualizer.canvasVisualizer.interfaceTableVisualizer nodeFilter "\"*\""
attr mutable ""
par SensorNetwork.visualizer.canvasVisualizer.interfaceTableVisualizer interfaceFilter "\"not(lo*)\""
attr mutable ""
par SensorNetwork.visualizer.canvasVisualizer.interfaceTableVisualizer format "\"%N %\\\\%a%/%l\""
attr mutable ""
par SensorNetwork.visualizer.canvasVisualizer.interfaceTableVisualizer placementHint "\"top\""
par SensorNetwork.visualizer.canvasVisualizer.interfaceTableVisualizer placementPriority 0
par SensorNetwork.visualizer.canvasVisualizer.interfaceTableVisualizer font "\"<default>\""
par SensorNetwork.visualizer.canvasVisualizer.interfaceTableVisualizer textColor "\"#005030\""
par SensorNetwork.visualizer.canvasVisualizer.interfaceTableVisualizer backgroundColor "\"white\""
par SensorNetwork.visualizer.canvasVisualizer.interfaceTableVisualizer opacity 1
par SensorNetwork.visualizer.canvasVisualizer.interfaceTableVisualizer zIndex 10
par SensorNetwork.visualizer.canvasVisualizer.dataLinkVisualizer typename "\"inet.visualizer.canvas.linklayer.DataLinkCanvasVisualizer\""
par SensorNetwork.visualizer.canvasVisualizer.dataLinkVisualizer visualizationTargetModule "\"^.^.^\""
par SensorNetwork.visualizer.canvasVisualizer.dataLinkVisualizer visualizationSubjectModule "\"^.^.^\""
par SensorNetwork.visualizer.canvasVisualizer.dataLinkVisualizer tags "\"\""
par SensorNetwork.visualizer.canvasVisualizer.dataLinkVisualizer displayLinks false
par SensorNetwork.visualizer.canvasVisualizer.dataLinkVisualizer activityLevel "\"service\""
attr enum service,peer,protocol
par SensorNetwork.visualizer.canvasVisualizer.dataLinkVisualizer nodeFilter "\"*\""
attr mutable ""
par SensorNetwork.visualizer.canvasVisualizer.dataLinkVisualizer interfaceFilter "\"*\""
attr mutable ""
par SensorNetwork.visualizer.canvasVisualizer.dataLinkVisualizer packetFilter "(omnetpp::cValueHolder)holder: \"*\""
attr mutable ""
par SensorNetwork.visualizer.canvasVisualizer.dataLinkVisualizer lineColor "\"darkcyan\""
par SensorNetwork.visualizer.canvasVisualizer.dataLinkVisualizer lineStyle "\"solid\""
par SensorNetwork.visualizer.canvasVisualizer.dataLinkVisualizer lineWidth 3
par SensorNetwork.visualizer.canvasVisualizer.dataLinkVisualizer lineShift 16
par SensorNetwork.visualizer.canvasVisualizer.dataLinkVisualizer lineShiftMode "\"normal\""
par SensorNetwork.visualizer.canvasVisualizer.dataLinkVisualizer lineContactSpacing 3
par SensorNetwork.visualizer.canvasVisualizer.dataLinkVisualizer lineContactMode "\"rectangular\""
attr enum circular,rectangular
par SensorNetwork.visualizer.canvasVisualizer.dataLinkVisualizer labelFormat "\"%n\""
par SensorNetwork.visualizer.canvasVisualizer.dataLinkVisualizer labelFont "\"<default>, 8px\""
par SensorNetwork.visualizer.canvasVisualizer.dataLinkVisualizer labelColor "\"darkcyan\""
par SensorNetwork.visualizer.canvasVisualizer.dataLinkVisualizer fadeOutMode "\"realTime\""
attr enum realTime,animationTime,simulationTime
par SensorNetwork.visualizer.canvasVisualizer.dataLinkVisualizer fadeOutTime 1s
attr unit s
par SensorNetwork.visualizer.canvasVisualizer.dataLinkVisualizer fadeOutAnimationSpeed 0
par SensorNetwork.visualizer.canvasVisualizer.dataLinkVisualizer holdAnimationTime 0s
attr unit s
par SensorNetwork.visualizer.canvasVisualizer.dataLinkVisualizer zIndex 2
par SensorNetwork.visualizer.canvasVisualizer.linkBreakVisualizer typename "\"inet.visualizer.canvas.linklayer.LinkBreakCanvasVisualizer\""
par SensorNetwork.visualizer.canvasVisualizer.linkBreakVisualizer visualizationTargetModule "\"^.^.^\""
par SensorNetwork.visualizer.canvasVisualizer.linkBreakVisualizer visualizationSubjectModule "\"^.^.^\""
par SensorNetwork.visualizer.canvasVisualizer.linkBreakVisualizer tags "\"\""
par SensorNetwork.visualizer.canvasVisualizer.linkBreakVisualizer displayLinkBreaks false
par SensorNetwork.visualizer.canvasVisualizer.linkBreakVisualizer nodeFilter "\"*\""
attr mutable ""
par SensorNetwork.visualizer.canvasVisualizer.linkBreakVisualizer interfaceFilter "\"*\""
attr mutable ""
par SensorNetwork.visualizer.canvasVisualizer.linkBreakVisualizer packetFilter "(omnetpp::cValueHolder)holder: \"*\""
attr mutable ""
par SensorNetwork.visualizer.canvasVisualizer.linkBreakVisualizer icon "\"status/stop\""
par SensorNetwork.visualizer.canvasVisualizer.linkBreakVisualizer iconTintAmount 0
par SensorNetwork.visualizer.canvasVisualizer.linkBreakVisualizer iconTintColor "\"\""
par SensorNetwork.visualizer.canvasVisualizer.linkBreakVisualizer fadeOutMode "\"realTime\""
attr enum realTime,animationTime,simulationTime
par SensorNetwork.visualizer.canvasVisualizer.linkBreakVisualizer fadeOutTime 1s
attr unit s
par SensorNetwork.visualizer.canvasVisualizer.linkBreakVisualizer fadeOutAnimationSpeed 0
par SensorNetwork.visualizer.canvasVisualizer.linkBreakVisualizer zIndex 2
par SensorNetwork.visualizer.canvasVisualizer.ieee80211Visualizer typename "\"inet.visualizer.canvas.linklayer.Ieee80211CanvasVisualizer\""
par SensorNetwork.visualizer.canvasVisualizer.ieee80211Visualizer visualizationTargetModule "\"^.^.^\""
par SensorNetwork.visualizer.canvasVisualizer.ieee80211Visualizer visualizationSubjectModule "\"^.^.^\""
par SensorNetwork.visualizer.canvasVisualizer.ieee80211Visualizer tags "\"\""
par SensorNetwork.visualizer.canvasVisualizer.ieee80211Visualizer networkNodeVisualizerModule "\"^.networkNodeVisualizer\""
par SensorNetwork.visualizer.canvasVisualizer.ieee80211Visualizer displayAssociations false
par SensorNetwork.visualizer.canvasVisualizer.ieee80211Visualizer nodeFilter "\"*\""
attr mutable ""
par SensorNetwork.visualizer.canvasVisualizer.ieee80211Visualizer interfaceFilter "\"*\""
attr mutable ""
par SensorNetwork.visualizer.canvasVisualizer.ieee80211Visualizer minPower -85dBm
attr unit dBm
par SensorNetwork.visualizer.canvasVisualizer.ieee80211Visualizer maxPower -50dBm
attr unit dBm
par SensorNetwork.visualizer.canvasVisualizer.ieee80211Visualizer icons "\"misc/signal_power_0 misc/signal_power_1 misc/signal_power_2 misc/signal_power_3\""
par SensorNetwork.visualizer.canvasVisualizer.ieee80211Visualizer iconColor "\"dark\""
par SensorNetwork.visualizer.canvasVisualizer.ieee80211Visualizer labelFont "\"<default>\""
par SensorNetwork.visualizer.canvasVisualizer.ieee80211Visualizer labelColor "\"black\""
par SensorNetwork.visualizer.canvasVisualizer.ieee80211Visualizer placementHint "\"top\""
par SensorNetwork.visualizer.canvasVisualizer.ieee80211Visualizer placementPriority 0
par SensorNetwork.visualizer.canvasVisualizer.ieee80211Visualizer zIndex 2
par SensorNetwork.visualizer.canvasVisualizer.networkRouteVisualizer typename "\"inet.visualizer.canvas.networklayer.NetworkRouteCanvasVisualizer\""
par SensorNetwork.visualizer.canvasVisualizer.networkRouteVisualizer visualizationTargetModule "\"^.^.^\""
par SensorNetwork.visualizer.canvasVisualizer.networkRouteVisualizer visualizationSubjectModule "\"^.^.^\""
par SensorNetwork.visualizer.canvasVisualizer.networkRouteVisualizer tags "\"\""
par SensorNetwork.visualizer.canvasVisualizer.networkRouteVisualizer displayRoutes false
par SensorNetwork.visualizer.canvasVisualizer.networkRouteVisualizer startPathSignal "\"packetReceivedFromUpper\""
par SensorNetwork.visualizer.canvasVisualizer.networkRouteVisualizer extendPathSignal "\"packetReceivedFromLower\""
par SensorNetwork.visualizer.canvasVisualizer.networkRouteVisualizer endPathSignal "\"packetSentToUpper\""
par SensorNetwork.visualizer.canvasVisualizer.networkRouteVisualizer nodeFilter "\"*\""
attr mutable ""
par SensorNetwork.visualizer.canvasVisualizer.networkRouteVisualizer packetFilter "(omnetpp::cValueHolder)holder: \"*\""
attr mutable ""
par SensorNetwork.visualizer.canvasVisualizer.networkRouteVisualizer lineColor "\"dark\""
par SensorNetwork.visualizer.canvasVisualizer.networkRouteVisualizer lineStyle "\"solid\""
par SensorNetwork.visualizer.canvasVisualizer.networkRouteVisualizer lineWidth 3
par SensorNetwork.visualizer.canvasVisualizer.networkRouteVisualizer lineSmooth false
par SensorNetwork.visualizer.canvasVisualizer.networkRouteVisualizer lineShift 16
par SensorNetwork.visualizer.canvasVisualizer.networkRouteVisualizer lineShiftMode "\"normal\""
par SensorNetwork.visualizer.canvasVisualizer.networkRouteVisualizer lineContactSpacing 3
par SensorNetwork.visualizer.canvasVisualizer.networkRouteVisualizer lineContactMode "\"rectangular\""
attr enum circular,rectangular
par SensorNetwork.visualizer.canvasVisualizer.networkRouteVisualizer labelFormat "\"%n\""
par SensorNetwork.visualizer.canvasVisualizer.networkRouteVisualizer labelFont "\"<default>, 8px\""
par SensorNetwork.visualizer.canvasVisualizer.networkRouteVisualizer labelColor "\"\""
par SensorNetwork.visualizer.canvasVisualizer.networkRouteVisualizer fadeOutMode "\"realTime\""
attr enum realTime,animationTime,simulationTime
par SensorNetwork.visualizer.canvasVisualizer.networkRouteVisualizer fadeOutTime 1s
attr unit s
par SensorNetwork.visualizer.canvasVisualizer.networkRouteVisualizer fadeOutAnimationSpeed 0
par SensorNetwork.visualizer.canvasVisualizer.networkRouteVisualizer zIndex 3
par SensorNetwork.visualizer.canvasVisualizer.routingTableVisualizer typename "\"inet.visualizer.canvas.networklayer.RoutingTableCanvasVisualizer\""
par SensorNetwork.visualizer.canvasVisualizer.routingTableVisualizer visualizationTargetModule "\"^.^.^\""
par SensorNetwork.visualizer.canvasVisualizer.routingTableVisualizer visualizationSubjectModule "\"^.^.^\""
par SensorNetwork.visualizer.canvasVisualizer.routingTableVisualizer tags "\"\""
par SensorNetwork.visualizer.canvasVisualizer.routingTableVisualizer displayRoutingTables false
par SensorNetwork.visualizer.canvasVisualizer.routingTableVisualizer displayRoutesIndividually true
par SensorNetwork.visualizer.canvasVisualizer.routingTableVisualizer displayLabels true
par SensorNetwork.visualizer.canvasVisualizer.routingTableVisualizer destinationFilter "\"*\""
attr mutable ""
par SensorNetwork.visualizer.canvasVisualizer.routingTableVisualizer nodeFilter "\"*\""
attr mutable ""
par SensorNetwork.visualizer.canvasVisualizer.routingTableVisualizer lineColor "\"black\""
par SensorNetwork.visualizer.canvasVisualizer.routingTableVisualizer lineStyle "\"solid\""
par SensorNetwork.visualizer.canvasVisualizer.routingTableVisualizer lineWidth 2
par SensorNetwork.visualizer.canvasVisualizer.routingTableVisualizer lineShift 16
par SensorNetwork.visualizer.canvasVisualizer.routingTableVisualizer lineShiftMode "\"normal\""
par SensorNetwork.visualizer.canvasVisualizer.routingTableVisualizer lineContactSpacing 3
par SensorNetwork.visualizer.canvasVisualizer.routingTableVisualizer lineContactMode "\"rectangular\""
attr enum circular,rectangular
par SensorNetwork.visualizer.canvasVisualizer.routingTableVisualizer labelFormat "\"%d/%m -> %g (%n)\""
attr mutable ""
par SensorNetwork.visualizer.canvasVisualizer.routingTableVisualizer labelFont "\"<default>, 8px\""
par SensorNetwork.visualizer.canvasVisualizer.routingTableVisualizer labelColor "\"black\""
par SensorNetwork.visualizer.canvasVisualizer.routingTableVisualizer zIndex 0
par SensorNetwork.visualizer.canvasVisualizer.transportRouteVisualizer typename "\"inet.visualizer.canvas.transportlayer.TransportRouteCanvasVisualizer\""
par SensorNetwork.visualizer.canvasVisualizer.transportRouteVisualizer visualizationTargetModule "\"^.^.^\""
par SensorNetwork.visualizer.canvasVisualizer.transportRouteVisualizer visualizationSubjectModule "\"^.^.^\""
par SensorNetwork.visualizer.canvasVisualizer.transportRouteVisualizer tags "\"\""
par SensorNetwork.visualizer.canvasVisualizer.transportRouteVisualizer displayRoutes false
par SensorNetwork.visualizer.canvasVisualizer.transportRouteVisualizer startPathSignal "\"packetReceivedFromUpper\""
par SensorNetwork.visualizer.canvasVisualizer.transportRouteVisualizer extendPathSignal "\"packetReceivedFromLower\""
par SensorNetwork.visualizer.canvasVisualizer.transportRouteVisualizer endPathSignal "\"packetSentToUpper\""
par SensorNetwork.visualizer.canvasVisualizer.transportRouteVisualizer nodeFilter "\"*\""
attr mutable ""
par SensorNetwork.visualizer.canvasVisualizer.transportRouteVisualizer packetFilter "(omnetpp::cValueHolder)holder: \"*\""
attr mutable ""
par SensorNetwork.visualizer.canvasVisualizer.transportRouteVisualizer lineColor "\"dark\""
par SensorNetwork.visualizer.canvasVisualizer.transportRouteVisualizer lineStyle "\"solid\""
par SensorNetwork.visualizer.canvasVisualizer.transportRouteVisualizer lineWidth 3
par SensorNetwork.visualizer.canvasVisualizer.transportRouteVisualizer lineSmooth false
par SensorNetwork.visualizer.canvasVisualizer.transportRouteVisualizer lineShift 16
par SensorNetwork.visualizer.canvasVisualizer.transportRouteVisualizer lineShiftMode "\"normal\""
par SensorNetwork.visualizer.canvasVisualizer.transportRouteVisualizer lineContactSpacing 3
par SensorNetwork.visualizer.canvasVisualizer.transportRouteVisualizer lineContactMode "\"rectangular\""
attr enum circular,rectangular
par SensorNetwork.visualizer.canvasVisualizer.transportRouteVisualizer labelFormat "\"%n\""
par SensorNetwork.visualizer.canvasVisualizer.transportRouteVisualizer labelFont "\"<default>, 8px\""
par SensorNetwork.visualizer.canvasVisualizer.transportRouteVisualizer labelColor "\"\""
par SensorNetwork.visualizer.canvasVisualizer.transportRouteVisualizer fadeOutMode "\"realTime\""
attr enum realTime,animationTime,simulationTime
par SensorNetwork.visualizer.canvasVisualizer.transportRouteVisualizer fadeOutTime 1s
attr unit s
par SensorNetwork.visualizer.canvasVisualizer.transportRouteVisualizer fadeOutAnimationSpeed 0
par SensorNetwork.visualizer.canvasVisualizer.transportRouteVisualizer zIndex 4
par SensorNetwork.visualizer.canvasVisualizer.transportConnectionVisualizer typename "\"inet.visualizer.canvas.transportlayer.TransportConnectionCanvasVisualizer\""
par SensorNetwork.visualizer.canvasVisualizer.transportConnectionVisualizer visualizationTargetModule "\"^.^.^\""
par SensorNetwork.visualizer.canvasVisualizer.transportConnectionVisualizer visualizationSubjectModule "\"^.^.^\""
par SensorNetwork.visualizer.canvasVisualizer.transportConnectionVisualizer tags "\"\""
par SensorNetwork.visualizer.canvasVisualizer.transportConnectionVisualizer networkNodeVisualizerModule "\"^.networkNodeVisualizer\""
par SensorNetwork.visualizer.canvasVisualizer.transportConnectionVisualizer displayTransportConnections false
par SensorNetwork.visualizer.canvasVisualizer.transportConnectionVisualizer sourceNodeFilter "\"*\""
attr mutable ""
par SensorNetwork.visualizer.canvasVisualizer.transportConnectionVisualizer sourcePortFilter "\"*\""
attr mutable ""
par SensorNetwork.visualizer.canvasVisualizer.transportConnectionVisualizer destinationNodeFilter "\"*\""
attr mutable ""
par SensorNetwork.visualizer.canvasVisualizer.transportConnectionVisualizer destinationPortFilter "\"*\""
attr mutable ""
par SensorNetwork.visualizer.canvasVisualizer.transportConnectionVisualizer icon "\"misc/marker_s\""
par SensorNetwork.visualizer.canvasVisualizer.transportConnectionVisualizer iconColor "\"dark\""
par SensorNetwork.visualizer.canvasVisualizer.transportConnectionVisualizer labelFont "\"<default>\""
par SensorNetwork.visualizer.canvasVisualizer.transportConnectionVisualizer labelColor "\"black\""
par SensorNetwork.visualizer.canvasVisualizer.transportConnectionVisualizer placementHint "\"top\""
par SensorNetwork.visualizer.canvasVisualizer.transportConnectionVisualizer placementPriority 0
par SensorNetwork.visualizer.canvasVisualizer.transportConnectionVisualizer zIndex 4
par SensorNetwork.visualizer.canvasVisualizer.failureProtectionConfigurationVisualizer typename "\"inet.visualizer.canvas.configurator.FailureProtectionConfigurationCanvasVisualizer\""
par SensorNetwork.visualizer.canvasVisualizer.failureProtectionConfigurationVisualizer visualizationTargetModule "\"^.^.^\""
par SensorNetwork.visualizer.canvasVisualizer.failureProtectionConfigurationVisualizer visualizationSubjectModule "\"^.^.^\""
par SensorNetwork.visualizer.canvasVisualizer.failureProtectionConfigurationVisualizer tags "\"\""
par SensorNetwork.visualizer.canvasVisualizer.failureProtectionConfigurationVisualizer displayTrees false
par SensorNetwork.visualizer.canvasVisualizer.failureProtectionConfigurationVisualizer lineColor "\"dark\""
par SensorNetwork.visualizer.canvasVisualizer.failureProtectionConfigurationVisualizer lineStyle "\"solid\""
par SensorNetwork.visualizer.canvasVisualizer.failureProtectionConfigurationVisualizer lineWidth 3
par SensorNetwork.visualizer.canvasVisualizer.failureProtectionConfigurationVisualizer lineSmooth false
par SensorNetwork.visualizer.canvasVisualizer.failureProtectionConfigurationVisualizer lineShift 16
par SensorNetwork.visualizer.canvasVisualizer.failureProtectionConfigurationVisualizer lineShiftMode "\"normal\""
par SensorNetwork.visualizer.canvasVisualizer.failureProtectionConfigurationVisualizer lineContactSpacing 3
par SensorNetwork.visualizer.canvasVisualizer.failureProtectionConfigurationVisualizer lineContactMode "\"rectangular\""
attr enum circular,rectangular
par SensorNetwork.visualizer.canvasVisualizer.failureProtectionConfigurationVisualizer failureProtectionConfiguratorModule "\"failureProtectionConfigurator\""
par SensorNetwork.visualizer.canvasVisualizer.failureProtectionConfigurationVisualizer streamFilter "\"*\""
par SensorNetwork.visualizer.canvasVisualizer.failureProtectionConfigurationVisualizer zIndex 3
par SensorNetwork.visualizer.canvasVisualizer.streamRedundancyConfigurationVisualizer typename "\"inet.visualizer.canvas.configurator.StreamRedundancyConfigurationCanvasVisualizer\""
par SensorNetwork.visualizer.canvasVisualizer.streamRedundancyConfigurationVisualizer visualizationTargetModule "\"^.^.^\""
par SensorNetwork.visualizer.canvasVisualizer.streamRedundancyConfigurationVisualizer visualizationSubjectModule "\"^.^.^\""
par SensorNetwork.visualizer.canvasVisualizer.streamRedundancyConfigurationVisualizer tags "\"\""
par SensorNetwork.visualizer.canvasVisualizer.streamRedundancyConfigurationVisualizer displayTrees false
par SensorNetwork.visualizer.canvasVisualizer.streamRedundancyConfigurationVisualizer lineColor "\"dark\""
par SensorNetwork.visualizer.canvasVisualizer.streamRedundancyConfigurationVisualizer lineStyle "\"solid\""
par SensorNetwork.visualizer.canvasVisualizer.streamRedundancyConfigurationVisualizer lineWidth 3
par SensorNetwork.visualizer.canvasVisualizer.streamRedundancyConfigurationVisualizer lineSmooth false
par SensorNetwork.visualizer.canvasVisualizer.streamRedundancyConfigurationVisualizer lineShift 16
par SensorNetwork.visualizer.canvasVisualizer.streamRedundancyConfigurationVisualizer lineShiftMode "\"normal\""
par SensorNetwork.visualizer.canvasVisualizer.streamRedundancyConfigurationVisualizer lineContactSpacing 3
par SensorNetwork.visualizer.canvasVisualizer.streamRedundancyConfigurationVisualizer lineContactMode "\"rectangular\""
attr enum circular,rectangular
par SensorNetwork.visualizer.canvasVisualizer.streamRedundancyConfigurationVisualizer streamRedundancyConfiguratorModule "\"streamRedundancyConfigurator\""
par SensorNetwork.visualizer.canvasVisualizer.streamRedundancyConfigurationVisualizer streamFilter "\"*\""
par SensorNetwork.visualizer.canvasVisualizer.streamRedundancyConfigurationVisualizer zIndex 3
par SensorNetwork.visualizer.canvasVisualizer typename "\"inet.visualizer.canvas.integrated.IntegratedCanvasVisualizer\""
par SensorNetwork.visualizer typename "\"inet.visualizer.common.IntegratedVisualizer\""
par SensorNetwork.radioMedium.propagation typename "\"inet.physicallayer.wireless.common.propagation.ConstantSpeedPropagation\""
par SensorNetwork.radioMedium.propagation propagationSpeed 2.99792e+08mps
attr unit mps
par SensorNetwork.radioMedium.propagation ignoreMovementDuringTransmission true
par SensorNetwork.radioMedium.propagation ignoreMovementDuringPropagation true
par SensorNetwork.radioMedium.propagation ignoreMovementDuringReception true
scalar SensorNetwork.radioMedium.propagation "Arrival computation count" 0
par SensorNetwork.radioMedium.analogModel typename "\"inet.physicallayer.wireless.common.analogmodel.packetlevel.ScalarAnalogModel\""
par SensorNetwork.radioMedium.analogModel ignorePartialInterference false
par SensorNetwork.radioMedium.backgroundNoise typename "\"inet.physicallayer.wireless.common.backgroundnoise.IsotropicScalarBackgroundNoise\""
par SensorNetwork.radioMedium.backgroundNoise power -110dBm
attr unit dBm
par SensorNetwork.radioMedium.backgroundNoise bandwidth "nan Hz"
attr unit Hz
par SensorNetwork.radioMedium.pathLoss typename "\"inet.physicallayer.wireless.common.pathloss.FreeSpacePathLoss\""
par SensorNetwork.radioMedium.pathLoss alpha 2
par SensorNetwork.radioMedium.pathLoss systemLoss 0dB
attr unit dB
par SensorNetwork.radioMedium.mediumLimitCache typename "\"inet.physicallayer.wireless.common.medium.MediumLimitCache\""
par SensorNetwork.radioMedium.mediumLimitCache centerFrequency "nan Hz"
attr unit Hz
par SensorNetwork.radioMedium.mediumLimitCache maxSpeed "nan mps"
attr unit mps
par SensorNetwork.radioMedium.mediumLimitCache maxTransmissionPower "nan W"
attr unit W
par SensorNetwork.radioMedium.mediumLimitCache minInterferencePower "nan dBm"
attr unit dBm
par SensorNetwork.radioMedium.mediumLimitCache minReceptionPower "nan dBm"
attr unit dBm
par SensorNetwork.radioMedium.mediumLimitCache maxAntennaGain 0dB
attr unit dB
par SensorNetwork.radioMedium.mediumLimitCache minInterferenceTime 1e-12s
attr unit s
par SensorNetwork.radioMedium.mediumLimitCache maxTransmissionDuration 0.12s
attr unit s
par SensorNetwork.radioMedium.mediumLimitCache maxCommunicationRange "nan m"
attr unit m
par SensorNetwork.radioMedium.mediumLimitCache maxInterferenceRange "nan m"
attr unit m
par SensorNetwork.radioMedium.communicationCache typename "\"inet.physicallayer.wireless.common.communicationcache.VectorCommunicationCache\""
par SensorNetwork.radioMedium typename "\"inet.physicallayer.wireless.apsk.packetlevel.ApskScalarRadioMedium\""
par SensorNetwork.radioMedium physicalEnvironmentModule "\"physicalEnvironment\""
par SensorNetwork.radioMedium signalAnalogRepresentation "\"scalar\""
attr enum unitDisk,scalar,dimensional
par SensorNetwork.radioMedium rangeFilter "\"\""
par SensorNetwork.radioMedium radioModeFilter false
par SensorNetwork.radioMedium listeningFilter false
par SensorNetwork.radioMedium macAddressFilter false
par SensorNetwork.radioMedium recordTransmissionLog false
par SensorNetwork.radioMedium recordReceptionLog false
scalar SensorNetwork.radioMedium "transmission count" 0
scalar SensorNetwork.radioMedium "signal send count" 0
scalar SensorNetwork.radioMedium "reception computation count" 0
scalar SensorNetwork.radioMedium "interference computation count" 16
scalar SensorNetwork.radioMedium "reception decision computation count" 0
scalar SensorNetwork.radioMedium "listening decision computation count" 16
scalar SensorNetwork.radioMedium "reception cache hit" -nan
attr unit %
scalar SensorNetwork.radioMedium "interference cache hit" -nan
attr unit %
scalar SensorNetwork.radioMedium "noise cache hit" -nan
attr unit %
scalar SensorNetwork.radioMedium "snir cache hit" -nan
attr unit %
scalar SensorNetwork.radioMedium "reception decision cache hit" -nan
attr unit %
scalar SensorNetwork.radioMedium "reception result cache hit" -nan
attr unit %
par SensorNetwork.Configuratore typename "\"inet.networklayer.configurator.ipv4.Ipv4NetworkConfigurator\""
par SensorNetwork.Configuratore minLinkWeight 0.001
par SensorNetwork.Configuratore configureIsolatedNetworksSeparatly false
par SensorNetwork.Configuratore config "<config>...</config> at /home/opp_env/default_workspace/WorkspaceTesi/Tesi//Routes.xml:1"
par SensorNetwork.Configuratore assignAddresses true
par SensorNetwork.Configuratore assignUniqueAddresses true
par SensorNetwork.Configuratore assignDisjunctSubnetAddresses true
par SensorNetwork.Configuratore addStaticRoutes false
par SensorNetwork.Configuratore addDefaultRoutes true
par SensorNetwork.Configuratore addSubnetRoutes true
par SensorNetwork.Configuratore addDirectRoutes true
par SensorNetwork.Configuratore optimizeRoutes true
par SensorNetwork.Configuratore dumpTopology false
par SensorNetwork.Configuratore dumpLinks false
par SensorNetwork.Configuratore dumpAddresses false
par SensorNetwork.Configuratore dumpRoutes false
par SensorNetwork.Configuratore dumpConfig "\"\""
par SensorNetwork.IoTSensor1.radioIn[0].channel typename "\"ned.IdealChannel\""
par SensorNetwork.IoTSensor1.status typename "\"inet.common.lifecycle.NodeStatus\""
par SensorNetwork.IoTSensor1.status initialStatus "\"UP\""
par SensorNetwork.IoTSensor1.energyStorage typename "\"inet.power.storage.IdealEpEnergyStorage\""
scalar SensorNetwork.IoTSensor1.energyStorage residualEnergyCapacity:last -2.10939680249e-07
attr interpolationmode linear
attr recordingmode last
attr source residualEnergyCapacityChanged
attr title "Residual energy capacity, last"
attr unit J
par SensorNetwork.IoTSensor1.mobility typename "\"inet.mobility.static.StationaryMobility\""
par SensorNetwork.IoTSensor1.mobility subjectModule "\"^\""
par SensorNetwork.IoTSensor1.mobility coordinateSystemModule "\"\""
par SensorNetwork.IoTSensor1.mobility displayStringTextFormat "\"p: %p\\nv: %v\""
attr mutable ""
par SensorNetwork.IoTSensor1.mobility updateDisplayString true
par SensorNetwork.IoTSensor1.mobility constraintAreaMinX "-inf m"
attr unit m
par SensorNetwork.IoTSensor1.mobility constraintAreaMinY "-inf m"
attr unit m
par SensorNetwork.IoTSensor1.mobility constraintAreaMinZ "-inf m"
attr unit m
par SensorNetwork.IoTSensor1.mobility constraintAreaMaxX "inf m"
attr unit m
par SensorNetwork.IoTSensor1.mobility constraintAreaMaxY "inf m"
attr unit m
par SensorNetwork.IoTSensor1.mobility constraintAreaMaxZ "inf m"
attr unit m
par SensorNetwork.IoTSensor1.mobility initialX "nan m"
attr unit m
par SensorNetwork.IoTSensor1.mobility initialY "nan m"
attr unit m
par SensorNetwork.IoTSensor1.mobility initialZ 0m
attr unit m
par SensorNetwork.IoTSensor1.mobility initialLatitude "nan deg"
attr unit deg
par SensorNetwork.IoTSensor1.mobility initialLongitude "nan deg"
attr unit deg
par SensorNetwork.IoTSensor1.mobility initialAltitude 0m
attr unit m
par SensorNetwork.IoTSensor1.mobility initialHeading 0deg
attr unit deg
par SensorNetwork.IoTSensor1.mobility initialElevation 0deg
attr unit deg
par SensorNetwork.IoTSensor1.mobility initialBank 0deg
attr unit deg
par SensorNetwork.IoTSensor1.mobility initFromDisplayString true
par SensorNetwork.IoTSensor1.mobility updateFromDisplayString true
par SensorNetwork.IoTSensor1.interfaceTable typename "\"inet.networklayer.common.InterfaceTable\""
par SensorNetwork.IoTSensor1.interfaceTable displayAddresses false
par SensorNetwork.IoTSensor1.cb typename "\"inet.common.MessageDispatcher\""
par SensorNetwork.IoTSensor1.cb displayStringTextFormat "\"processed %p pk (%l)\""
par SensorNetwork.IoTSensor1.cb forwardServiceRegistration true
par SensorNetwork.IoTSensor1.cb forwardProtocolRegistration true
par SensorNetwork.IoTSensor1.bl typename "\"inet.common.MessageDispatcher\""
par SensorNetwork.IoTSensor1.bl displayStringTextFormat "\"processed %p pk (%l)\""
par SensorNetwork.IoTSensor1.bl forwardServiceRegistration true
par SensorNetwork.IoTSensor1.bl forwardProtocolRegistration true
par SensorNetwork.IoTSensor1.li typename "\"inet.common.MessageDispatcher\""
par SensorNetwork.IoTSensor1.li displayStringTextFormat "\"processed %p pk (%l)\""
par SensorNetwork.IoTSensor1.li forwardServiceRegistration true
par SensorNetwork.IoTSensor1.li forwardProtocolRegistration true
par SensorNetwork.IoTSensor1.lo[0].upperLayerIn.channel typename "\"ned.IdealChannel\""
par SensorNetwork.IoTSensor1.lo[0].lo.upperLayerOut.channel typename "\"ned.IdealChannel\""
par SensorNetwork.IoTSensor1.lo[0].lo typename "\"inet.linklayer.loopback.Loopback\""
par SensorNetwork.IoTSensor1.lo[0].lo interfaceTableModule "\"SensorNetwork.IoTSensor1.interfaceTable\""
par SensorNetwork.IoTSensor1.lo[0].lo mtu 4470B
attr unit B
scalar SensorNetwork.IoTSensor1.lo[0].lo rcvdPkFromHl:count 0
attr interpolationmode none
attr recordingmode count
attr source packetReceivedFromUpper
attr title "packets received from higher layer, count"
scalar SensorNetwork.IoTSensor1.lo[0].lo rcvdPkFromHl:sum(packetBytes) 0
attr interpolationmode none
attr recordingmode sum(packetBytes)
attr source packetReceivedFromUpper
attr title "packets received from higher layer, sum(packetBytes)"
scalar SensorNetwork.IoTSensor1.lo[0].lo passedUpPk:count 0
attr interpolationmode none
attr recordingmode count
attr source packetSentToUpper
attr title "packets passed to higher layer, count"
scalar SensorNetwork.IoTSensor1.lo[0].lo passedUpPk:sum(packetBytes) 0
attr interpolationmode none
attr recordingmode sum(packetBytes)
attr source packetSentToUpper
attr title "packets passed to higher layer, sum(packetBytes)"
par SensorNetwork.IoTSensor1.lo[0] typename "\"inet.linklayer.loopback.LoopbackInterface\""
par SensorNetwork.IoTSensor1.lo[0] displayStringTextFormat "\"%a (%i)\\n%m\""
par SensorNetwork.IoTSensor1.lo[0] recordPcap false
par SensorNetwork.IoTSensor1.lo[0] numPcapRecorders 0
par SensorNetwork.IoTSensor1.lo[0] interfaceTableModule "\"SensorNetwork.IoTSensor1.interfaceTable\""
scalar SensorNetwork.IoTSensor1.lo[0] packetDropInterfaceDown:count 0
attr interpolationmode none
attr recordingmode count
attr source packetDropReasonIsInterfaceDown(packetDropped)
attr title "packet drops: interface down, count"
scalar SensorNetwork.IoTSensor1.lo[0] packetDropInterfaceDown:sum(packetBytes) 0
attr interpolationmode none
attr recordingmode sum(packetBytes)
attr source packetDropReasonIsInterfaceDown(packetDropped)
attr title "packet drops: interface down, sum(packetBytes)"
scalar SensorNetwork.IoTSensor1.lo[0] packetDropNoCarrier:count 0
attr interpolationmode none
attr recordingmode count
attr source packetDropReasonIsNoCarrier(packetDropped)
attr title "packet drops: no carrier, count"
scalar SensorNetwork.IoTSensor1.lo[0] packetDropNoCarrier:sum(packetBytes) 0
attr interpolationmode none
attr recordingmode sum(packetBytes)
attr source packetDropReasonIsNoCarrier(packetDropped)
attr title "packet drops: no carrier, sum(packetBytes)"
par SensorNetwork.IoTSensor1.wlan[0].radioIn.channel typename "\"ned.IdealChannel\""
par SensorNetwork.IoTSensor1.wlan[0].mac.upperLayerOut.channel typename "\"ned.IdealChannel\""
par SensorNetwork.IoTSensor1.wlan[0].upperLayerIn.channel typename "\"ned.IdealChannel\""
par SensorNetwork.IoTSensor1.wlan[0].queue typename "\"inet.queueing.queue.DropTailQueue\""
par SensorNetwork.IoTSensor1.wlan[0].queue displayStringTextFormat "\"contains %p pk (%l) pushed %u\\npulled %o removed %r dropped %d\""
par SensorNetwork.IoTSensor1.wlan[0].queue packetCapacity 20
par SensorNetwork.IoTSensor1.wlan[0].queue dataCapacity -1b
attr unit b
par SensorNetwork.IoTSensor1.wlan[0].queue dropperClass "\"inet::queueing::PacketAtCollectionEndDropper\""
par SensorNetwork.IoTSensor1.wlan[0].queue comparatorClass "\"\""
par SensorNetwork.IoTSensor1.wlan[0].queue bufferModule "\"\""
scalar SensorNetwork.IoTSensor1.wlan[0].queue queueLength:last 0
attr autoWarmupFilter false
attr interpolationmode sample-hold
attr recordingmode last
attr source "warmup(atomic(constant0(packetPushEnded) + count(packetPushStarted) - count(packetPulled) - count(packetRemoved) - count(packetDropped)))"
attr title "queue length, last"
attr unit pk
scalar SensorNetwork.IoTSensor1.wlan[0].queue queueLength:max 0
attr autoWarmupFilter false
attr interpolationmode sample-hold
attr recordingmode max
attr source "warmup(atomic(constant0(packetPushEnded) + count(packetPushStarted) - count(packetPulled) - count(packetRemoved) - count(packetDropped)))"
attr title "queue length, max"
attr unit pk
scalar SensorNetwork.IoTSensor1.wlan[0].queue queueLength:timeavg 0
attr autoWarmupFilter false
attr interpolationmode sample-hold
attr recordingmode timeavg
attr source "warmup(atomic(constant0(packetPushEnded) + count(packetPushStarted) - count(packetPulled) - count(packetRemoved) - count(packetDropped)))"
attr title "queue length, timeavg"
attr unit pk
scalar SensorNetwork.IoTSensor1.wlan[0].queue queueBitLength:last 0
attr autoWarmupFilter false
attr interpolationmode sample-hold
attr recordingmode last
attr source "warmup(atomic(constant0(packetPushEnded) + sum(packetLength(packetPushStarted)) - sum(packetLength(packetPulled)) - sum(packetLength(packetRemoved)) - sum(packetLength(packetDropped))))"
attr title "queue bit length, last"
attr unit b
scalar SensorNetwork.IoTSensor1.wlan[0].queue queueBitLength:max 0
attr autoWarmupFilter false
attr interpolationmode sample-hold
attr recordingmode max
attr source "warmup(atomic(constant0(packetPushEnded) + sum(packetLength(packetPushStarted)) - sum(packetLength(packetPulled)) - sum(packetLength(packetRemoved)) - sum(packetLength(packetDropped))))"
attr title "queue bit length, max"
attr unit b
scalar SensorNetwork.IoTSensor1.wlan[0].queue queueBitLength:timeavg 0
attr autoWarmupFilter false
attr interpolationmode sample-hold
attr recordingmode timeavg
attr source "warmup(atomic(constant0(packetPushEnded) + sum(packetLength(packetPushStarted)) - sum(packetLength(packetPulled)) - sum(packetLength(packetRemoved)) - sum(packetLength(packetDropped))))"
attr title "queue bit length, timeavg"
attr unit b
statistic SensorNetwork.IoTSensor1.wlan[0].queue queueingTime:histogram
field count 0
field mean -nan
field stddev nan
field min nan
field max nan
field sum 0
field sqrsum 0
attr interpolationmode none
attr recordingmode histogram
attr source queueingTime(packetPulled)
attr title "queueing times"
attr unit s
bin	-inf	0
bin	0	0
bin	1	0
scalar SensorNetwork.IoTSensor1.wlan[0].queue outgoingPackets:count 0
attr recordingmode count
attr source packetPulled
attr title "outgoing packets, count"
attr unit pk
scalar SensorNetwork.IoTSensor1.wlan[0].queue outgoingPacketLengths:sum 0
attr interpolationmode none
attr recordingmode sum
attr source packetLength(packetPulled)
attr title "outgoing packet lengths, sum"
attr unit b
statistic SensorNetwork.IoTSensor1.wlan[0].queue outgoingPacketLengths:histogram
field count 0
field mean -nan
field stddev nan
field min nan
field max nan
field sum 0
field sqrsum 0
attr interpolationmode none
attr recordingmode histogram
attr source packetLength(packetPulled)
attr title "outgoing packet lengths"
attr unit b
bin	-inf	0
bin	0	0
bin	1	0
statistic SensorNetwork.IoTSensor1.wlan[0].queue flowQueueingTime:histogram
field count 0
field mean -nan
field stddev nan
field min nan
field max nan
field sum 0
field sqrsum 0
attr interpolationmode none
attr recordingmode histogram
attr source queueingTime(demuxFlow(packetPulled))
attr title "flow queueing times"
attr unit s
bin	-inf	0
bin	0	0
bin	1	0
scalar SensorNetwork.IoTSensor1.wlan[0].queue incomingPackets:count 0
attr recordingmode count
attr source packetPushStarted
attr title "incoming packets, count"
attr unit pk
scalar SensorNetwork.IoTSensor1.wlan[0].queue incomingPacketLengths:sum 0
attr interpolationmode none
attr recordingmode sum
attr source packetLength(packetPushStarted)
attr title "incoming packet lengths, sum"
attr unit b
statistic SensorNetwork.IoTSensor1.wlan[0].queue incomingPacketLengths:histogram
field count 0
field mean -nan
field stddev nan
field min nan
field max nan
field sum 0
field sqrsum 0
attr interpolationmode none
attr recordingmode histogram
attr source packetLength(packetPushStarted)
attr title "incoming packet lengths"
attr unit b
bin	-inf	0
bin	0	0
bin	1	0
scalar SensorNetwork.IoTSensor1.wlan[0].queue droppedPacketsQueueOverflow:count 0
attr interpolationmode none
attr recordingmode count
attr source packetDropReasonIsQueueOverflow(packetDropped)
attr title "dropped packets: queue overflow, count"
attr unit pk
scalar SensorNetwork.IoTSensor1.wlan[0].queue droppedPacketLengthsQueueOverflow:sum 0
attr interpolationmode none
attr recordingmode sum
attr source packetLength(packetDropReasonIsQueueOverflow(packetDropped))
attr title "dropped packet lengths: queue overflow, sum"
attr unit b
par SensorNetwork.IoTSensor1.wlan[0].mac typename "\"inet.linklayer.bmac.BMac\""
par SensorNetwork.IoTSensor1.wlan[0].mac interfaceTableModule "\"SensorNetwork.IoTSensor1.interfaceTable\""
par SensorNetwork.IoTSensor1.wlan[0].mac address "\"auto\""
attr mutable ""
par SensorNetwork.IoTSensor1.wlan[0].mac slotDuration 0.025s
attr unit s
par SensorNetwork.IoTSensor1.wlan[0].mac headerLength 8b
attr unit b
par SensorNetwork.IoTSensor1.wlan[0].mac ctrlFrameLength 8b
attr unit b
par SensorNetwork.IoTSensor1.wlan[0].mac mtu 0B
attr unit B
par SensorNetwork.IoTSensor1.wlan[0].mac checkInterval 0.01s
attr unit s
par SensorNetwork.IoTSensor1.wlan[0].mac animation true
par SensorNetwork.IoTSensor1.wlan[0].mac bitrate 19200bps
attr unit bps
par SensorNetwork.IoTSensor1.wlan[0].mac useMACAcks false
par SensorNetwork.IoTSensor1.wlan[0].mac radioModule "\"^.radio\""
par SensorNetwork.IoTSensor1.wlan[0].mac maxTxAttempts 2
scalar SensorNetwork.IoTSensor1.wlan[0].mac nbTxDataPackets 0
scalar SensorNetwork.IoTSensor1.wlan[0].mac nbTxPreambles 0
scalar SensorNetwork.IoTSensor1.wlan[0].mac nbRxDataPackets 0
scalar SensorNetwork.IoTSensor1.wlan[0].mac nbRxPreambles 0
scalar SensorNetwork.IoTSensor1.wlan[0].mac nbMissedAcks 0
scalar SensorNetwork.IoTSensor1.wlan[0].mac nbRecvdAcks 0
scalar SensorNetwork.IoTSensor1.wlan[0].mac nbTxAcks 0
scalar SensorNetwork.IoTSensor1.wlan[0].mac nbDroppedDataPackets 0
scalar SensorNetwork.IoTSensor1.wlan[0].mac packetDropIncorrectlyReceived:count 0
attr interpolationmode none
attr recordingmode count
attr source packetDropReasonIsIncorrectlyReceived(packetDropped)
attr title "packet drop: incorrectly received, count"
scalar SensorNetwork.IoTSensor1.wlan[0].mac packetDropIncorrectlyReceived:sum(packetBytes) 0
attr interpolationmode none
attr recordingmode sum(packetBytes)
attr source packetDropReasonIsIncorrectlyReceived(packetDropped)
attr title "packet drop: incorrectly received, sum(packetBytes)"
scalar SensorNetwork.IoTSensor1.wlan[0].mac packetDropNotAddressedToUs:count 0
attr interpolationmode none
attr recordingmode count
attr source packetDropReasonIsNotAddressedToUs(packetDropped)
attr title "packet drop: not addressed to us, count"
scalar SensorNetwork.IoTSensor1.wlan[0].mac packetDropNotAddressedToUs:sum(packetBytes) 0
attr interpolationmode none
attr recordingmode sum(packetBytes)
attr source packetDropReasonIsNotAddressedToUs(packetDropped)
attr title "packet drop: not addressed to us, sum(packetBytes)"
scalar SensorNetwork.IoTSensor1.wlan[0].mac packetDropQueueOverflow:count 0
attr interpolationmode none
attr recordingmode count
attr source packetDropReasonIsQueueOverflow(packetDropped)
attr title "packet drop: queue overflow, count"
scalar SensorNetwork.IoTSensor1.wlan[0].mac packetDropQueueOverflow:sum(packetBytes) 0
attr interpolationmode none
attr recordingmode sum(packetBytes)
attr source packetDropReasonIsQueueOverflow(packetDropped)
attr title "packet drop: queue overflow, sum(packetBytes)"
[...]
attr interpolationmode none
attr recordingmode sum
attr title "pause units received, sum"
scalar SensorNetwork.server.eth[0].mac txPausePkUnits:count 0
attr interpolationmode none
attr recordingmode count
attr title "pause units sent, count"
scalar SensorNetwork.server.eth[0].mac txPausePkUnits:sum 0
attr interpolationmode none
attr recordingmode sum
attr title "pause units sent, sum"
scalar SensorNetwork.server.eth[0].mac rxPkOk:count 0
attr interpolationmode none
attr recordingmode count
attr source rxPkOk
attr title "packets received OK, count"
scalar SensorNetwork.server.eth[0].mac rxPkOk:sum(packetBytes) 0
attr interpolationmode none
attr recordingmode sum(packetBytes)
attr source rxPkOk
attr title "packets received OK, sum(packetBytes)"
scalar SensorNetwork.server.eth[0].mac txPk:count 0
attr interpolationmode none
attr recordingmode count
attr source packetSentToLower
attr title "packets transmitted, count"
scalar SensorNetwork.server.eth[0].mac txPk:sum(packetBytes) 0
attr interpolationmode none
attr recordingmode sum(packetBytes)
attr source packetSentToLower
attr title "packets transmitted, sum(packetBytes)"
scalar SensorNetwork.server.eth[0].mac packetReceivedFromUpper:count 0
attr interpolationmode none
attr recordingmode count
attr source packetReceivedFromUpper
attr title "packet bytes from higher layer, count"
scalar SensorNetwork.server.eth[0].mac packetReceivedFromUpper:sum(packetBytes) 0
attr interpolationmode none
attr recordingmode sum(packetBytes)
attr source packetReceivedFromUpper
attr title "packet bytes from higher layer, sum(packetBytes)"
scalar SensorNetwork.server.eth[0].mac passedUpPk:count 0
attr interpolationmode none
attr recordingmode count
attr source packetSentToUpper
attr title "packets passed to higher layer, count"
scalar SensorNetwork.server.eth[0].mac passedUpPk:sum(packetBytes) 0
attr interpolationmode none
attr recordingmode sum(packetBytes)
attr source packetSentToUpper
attr title "packets passed to higher layer, sum(packetBytes)"
scalar SensorNetwork.server.eth[0].mac packetDropIncorrectlyReceived:count 0
attr interpolationmode none
attr recordingmode count
attr source packetDropReasonIsIncorrectlyReceived(packetDropped)
attr title "packet drop: incorrectly received, count"
scalar SensorNetwork.server.eth[0].mac packetDropIncorrectlyReceived:sum(packetBytes) 0
attr interpolationmode none
attr recordingmode sum(packetBytes)
attr source packetDropReasonIsIncorrectlyReceived(packetDropped)
attr title "packet drop: incorrectly received, sum(packetBytes)"
scalar SensorNetwork.server.eth[0].mac packetDropInterfaceDown:count 0
attr interpolationmode none
attr recordingmode count
attr source packetDropReasonIsInterfaceDown(packetDropped)
attr title "packet drop: interface down, count"
scalar SensorNetwork.server.eth[0].mac packetDropInterfaceDown:sum(packetBytes) 0
attr interpolationmode none
attr recordingmode sum(packetBytes)
attr source packetDropReasonIsInterfaceDown(packetDropped)
attr title "packet drop: interface down, sum(packetBytes)"
scalar SensorNetwork.server.eth[0].mac packetDropNotAddressedToUs:count 0
attr interpolationmode none
attr recordingmode count
attr source packetDropReasonIsNotAddressedToUs(packetDropped)
attr title "packet drop: not addressed to us, count"
scalar SensorNetwork.server.eth[0].mac packetDropNotAddressedToUs:sum(packetBytes) 0
attr interpolationmode none
attr recordingmode sum(packetBytes)
attr source packetDropReasonIsNotAddressedToUs(packetDropped)
attr title "packet drop: not addressed to us, sum(packetBytes)"
par SensorNetwork.server.eth[0] typename "\"inet.linklayer.ethernet.EthernetInterface\""
par SensorNetwork.server.eth[0] displayStringTextFormat "\"%a (%i)\\n%m\""
par SensorNetwork.server.eth[0] recordPcap false
par SensorNetwork.server.eth[0] numPcapRecorders 0
par SensorNetwork.server.eth[0] interfaceTableModule "\"SensorNetwork.server.interfaceTable\""
par SensorNetwork.server.eth[0] protocol "\"ethernetmac\""
par SensorNetwork.server.eth[0] address "\"0A-AA-00-00-00-06\""
attr mutable ""
par SensorNetwork.server.eth[0] duplexMode true
par SensorNetwork.server.eth[0] csmacdSupport false
par SensorNetwork.server.eth[0] bitrate 0bps
attr unit bps
par SensorNetwork.server.eth[0] fcsMode "\"declared\""
attr enum declared,computed
scalar SensorNetwork.server.eth[0] packetDropInterfaceDown:count 0
attr interpolationmode none
attr recordingmode count
attr source packetDropReasonIsInterfaceDown(packetDropped)
attr title "packet drops: interface down, count"
scalar SensorNetwork.server.eth[0] packetDropInterfaceDown:sum(packetBytes) 0
attr interpolationmode none
attr recordingmode sum(packetBytes)
attr source packetDropReasonIsInterfaceDown(packetDropped)
attr title "packet drops: interface down, sum(packetBytes)"
scalar SensorNetwork.server.eth[0] packetDropNoCarrier:count 0
attr interpolationmode none
attr recordingmode count
attr source packetDropReasonIsNoCarrier(packetDropped)
attr title "packet drops: no carrier, count"
scalar SensorNetwork.server.eth[0] packetDropNoCarrier:sum(packetBytes) 0
attr interpolationmode none
attr recordingmode sum(packetBytes)
attr source packetDropReasonIsNoCarrier(packetDropped)
attr title "packet drops: no carrier, sum(packetBytes)"
par SensorNetwork.server.ipv4.transportIn.channel typename "\"ned.IdealChannel\""
par SensorNetwork.server.ipv4.up.out[0].channel typename "\"ned.IdealChannel\""
par SensorNetwork.server.ipv4.lp.out[2].channel typename "\"ned.IdealChannel\""
par SensorNetwork.server.ipv4.ifIn.channel typename "\"ned.IdealChannel\""
par SensorNetwork.server.ipv4.configurator typename "\"inet.networklayer.configurator.ipv4.Ipv4NodeConfigurator\""
par SensorNetwork.server.ipv4.configurator interfaceTableModule "\"SensorNetwork.server.interfaceTable\""
par SensorNetwork.server.ipv4.configurator routingTableModule "\"SensorNetwork.server.ipv4.routingTable\""
par SensorNetwork.server.ipv4.configurator networkConfiguratorModule "\"configurator\""
par SensorNetwork.server.ipv4.configurator configureRoutingTable true
par SensorNetwork.server.ipv4.routingTable typename "\"inet.networklayer.ipv4.Ipv4RoutingTable\""
par SensorNetwork.server.ipv4.routingTable interfaceTableModule "\"SensorNetwork.server.interfaceTable\""
par SensorNetwork.server.ipv4.routingTable routerId "\"auto\""
par SensorNetwork.server.ipv4.routingTable netmaskRoutes "\"*\""
par SensorNetwork.server.ipv4.routingTable forwarding false
par SensorNetwork.server.ipv4.routingTable multicastForwarding false
par SensorNetwork.server.ipv4.routingTable useAdminDist false
par SensorNetwork.server.ipv4.routingTable routingFile "\"\""
par SensorNetwork.server.ipv4.natTable typename "\"inet.networklayer.ipv4.Ipv4NatTable\""
par SensorNetwork.server.ipv4.natTable networkProtocolModule "\"^.ip\""
par SensorNetwork.server.ipv4.natTable config "<config/> at content:1"
par SensorNetwork.server.ipv4.up typename "\"inet.common.MessageDispatcher\""
par SensorNetwork.server.ipv4.up displayStringTextFormat "\"processed %p pk (%l)\""
par SensorNetwork.server.ipv4.up forwardServiceRegistration true
par SensorNetwork.server.ipv4.up forwardProtocolRegistration true
par SensorNetwork.server.ipv4.igmp typename "\"inet.networklayer.ipv4.Igmpv2\""
par SensorNetwork.server.ipv4.igmp interfaceTableModule "\"SensorNetwork.server.interfaceTable\""
par SensorNetwork.server.ipv4.igmp routingTableModule "\"SensorNetwork.server.ipv4.routingTable\""
par SensorNetwork.server.ipv4.igmp crcMode "\"declared\""
attr enum declared,computed
par SensorNetwork.server.ipv4.igmp enabled true
par SensorNetwork.server.ipv4.igmp robustnessVariable 2
par SensorNetwork.server.ipv4.igmp queryInterval 125s
attr unit s
par SensorNetwork.server.ipv4.igmp queryResponseInterval 10s
attr unit s
par SensorNetwork.server.ipv4.igmp groupMembershipInterval 260s
attr unit s
par SensorNetwork.server.ipv4.igmp otherQuerierPresentInterval 255s
attr unit s
par SensorNetwork.server.ipv4.igmp startupQueryInterval 31.25s
attr unit s
par SensorNetwork.server.ipv4.igmp startupQueryCount 2
par SensorNetwork.server.ipv4.igmp lastMemberQueryInterval 1s
attr unit s
par SensorNetwork.server.ipv4.igmp lastMemberQueryCount 2
par SensorNetwork.server.ipv4.igmp unsolicitedReportInterval 10s
attr unit s
par SensorNetwork.server.ipv4.icmp typename "\"inet.networklayer.ipv4.Icmp\""
par SensorNetwork.server.ipv4.icmp interfaceTableModule "\"SensorNetwork.server.interfaceTable\""
par SensorNetwork.server.ipv4.icmp routingTableModule "\"SensorNetwork.server.ipv4.routingTable\""
par SensorNetwork.server.ipv4.icmp crcMode "\"declared\""
attr enum declared,computed
attr mutable ""
par SensorNetwork.server.ipv4.icmp quoteLength 8B
attr mutable ""
attr unit B
par SensorNetwork.server.ipv4.mp typename "\"inet.common.MessageDispatcher\""
par SensorNetwork.server.ipv4.mp displayStringTextFormat "\"processed %p pk (%l)\""
par SensorNetwork.server.ipv4.mp forwardServiceRegistration true
par SensorNetwork.server.ipv4.mp forwardProtocolRegistration true
par SensorNetwork.server.ipv4.ip typename "\"inet.networklayer.ipv4.Ipv4\""
par SensorNetwork.server.ipv4.ip interfaceTableModule "\"SensorNetwork.server.interfaceTable\""
par SensorNetwork.server.ipv4.ip routingTableModule "\"SensorNetwork.server.ipv4.routingTable\""
par SensorNetwork.server.ipv4.ip arpModule "\"SensorNetwork.server.ipv4.arp\""
par SensorNetwork.server.ipv4.ip icmpModule "\"SensorNetwork.server.ipv4.icmp\""
par SensorNetwork.server.ipv4.ip crcMode "\"declared\""
attr enum declared,computed
par SensorNetwork.server.ipv4.ip timeToLive 32
par SensorNetwork.server.ipv4.ip multicastTimeToLive 32
par SensorNetwork.server.ipv4.ip fragmentTimeout 60s
attr unit s
par SensorNetwork.server.ipv4.ip limitedBroadcast false
par SensorNetwork.server.ipv4.ip directBroadcastInterfaces "\"\""
scalar SensorNetwork.server.ipv4.ip packetDropAddressResolutionFailed:count 0
attr interpolationmode none
attr recordingmode count
attr source packetDropReasonIsAddressResolutionFailed(packetDropped)
attr title "packet drop: address resolution failed, count"
scalar SensorNetwork.server.ipv4.ip packetDropAddressResolutionFailed:sum(packetBytes) 0
attr interpolationmode none
attr recordingmode sum(packetBytes)
attr source packetDropReasonIsAddressResolutionFailed(packetDropped)
attr title "packet drop: address resolution failed, sum(packetBytes)"
scalar SensorNetwork.server.ipv4.ip packetDropHopLimitReached:count 0
attr interpolationmode none
attr recordingmode count
attr source packetDropReasonIsHopLimitReached(packetDropped)
attr title "packet drop: hop limit reached, count"
scalar SensorNetwork.server.ipv4.ip packetDropHopLimitReached:sum(packetBytes) 0
attr interpolationmode none
attr recordingmode sum(packetBytes)
attr source packetDropReasonIsHopLimitReached(packetDropped)
attr title "packet drop: hop limit reached, sum(packetBytes)"
scalar SensorNetwork.server.ipv4.ip packetDropForwardingDisabled:count 0
attr interpolationmode none
attr recordingmode count
attr source packetDropReasonIsForwardingDisabled(packetDropped)
attr title "packet drop: forwarding disabled, count"
scalar SensorNetwork.server.ipv4.ip packetDropForwardingDisabled:sum(packetBytes) 0
attr interpolationmode none
attr recordingmode sum(packetBytes)
attr source packetDropReasonIsForwardingDisabled(packetDropped)
attr title "packet drop: forwarding disabled, sum(packetBytes)"
scalar SensorNetwork.server.ipv4.ip packetDropNoInterfaceFound:count 0
attr interpolationmode none
attr recordingmode count
attr source packetDropReasonIsNoInterfaceFound(packetDropped)
attr title "packet drop: no interface found, count"
scalar SensorNetwork.server.ipv4.ip packetDropNoInterfaceFound:sum(packetBytes) 0
attr interpolationmode none
attr recordingmode sum(packetBytes)
attr source packetDropReasonIsNoInterfaceFound(packetDropped)
attr title "packet drop: no interface found, sum(packetBytes)"
scalar SensorNetwork.server.ipv4.ip packetDropNoRouteFound:count 0
attr interpolationmode none
attr recordingmode count
attr source packetDropReasonIsNoRouteFound(packetDropped)
attr title "packet drop: no route found, count"
scalar SensorNetwork.server.ipv4.ip packetDropNoRouteFound:sum(packetBytes) 0
attr interpolationmode none
attr recordingmode sum(packetBytes)
attr source packetDropReasonIsNoRouteFound(packetDropped)
attr title "packet drop: no route found, sum(packetBytes)"
scalar SensorNetwork.server.ipv4.ip packetDropUndefined:count 0
attr interpolationmode none
attr recordingmode count
attr source packetDropReasonIsUndefined(packetDropped)
attr title "packet drop: undefined, count"
scalar SensorNetwork.server.ipv4.ip packetDropUndefined:sum(packetBytes) 0
attr interpolationmode none
attr recordingmode sum(packetBytes)
attr source packetDropReasonIsUndefined(packetDropped)
attr title "packet drop: undefined, sum(packetBytes)"
par SensorNetwork.server.ipv4.arp typename "\"inet.networklayer.arp.ipv4.GlobalArp\""
par SensorNetwork.server.ipv4.arp interfaceTableModule "\"SensorNetwork.server.interfaceTable\""
par SensorNetwork.server.ipv4.arp addressType "\"ipv4\""
attr enum ipv4,ipv6,mac,moduleid,modulepath
par SensorNetwork.server.ipv4.lp typename "\"inet.common.MessageDispatcher\""
par SensorNetwork.server.ipv4.lp displayStringTextFormat "\"processed %p pk (%l)\""
par SensorNetwork.server.ipv4.lp forwardServiceRegistration true
par SensorNetwork.server.ipv4.lp forwardProtocolRegistration true
par SensorNetwork.server.ipv4 typename "\"inet.networklayer.ipv4.Ipv4NetworkLayer\""
par SensorNetwork.server.ipv4 forwarding false
par SensorNetwork.server.ipv4 multicastForwarding false
par SensorNetwork.server.ipv4 interfaceTableModule "\"SensorNetwork.server.interfaceTable\""
par SensorNetwork.server.ipv4 displayStringTextFormat "\"%i\""
par SensorNetwork.server.nl typename "\"inet.common.MessageDispatcher\""
par SensorNetwork.server.nl displayStringTextFormat "\"processed %p pk (%l)\""
par SensorNetwork.server.nl forwardServiceRegistration true
par SensorNetwork.server.nl forwardProtocolRegistration true
par SensorNetwork.server.udp typename "\"inet.transportlayer.udp.Udp\""
par SensorNetwork.server.udp interfaceTableModule "\"SensorNetwork.server.interfaceTable\""
par SensorNetwork.server.udp icmpModule "\"^.ipv4.icmp\""
par SensorNetwork.server.udp icmpv6Module "\"^.ipv6.icmpv6\""
par SensorNetwork.server.udp crcMode "\"declared\""
attr enum disabled,declared,computed
par SensorNetwork.server.udp defaultMulticastLoop true
scalar SensorNetwork.server.udp packetReceived:count 0
attr interpolationmode none
attr recordingmode count
attr source packetReceived
attr title "packets received, count"
scalar SensorNetwork.server.udp packetReceived:sum(packetBytes) 0
attr interpolationmode none
attr recordingmode sum(packetBytes)
attr source packetReceived
attr title "packets received, sum(packetBytes)"
scalar SensorNetwork.server.udp packetSent:count 0
attr interpolationmode none
attr recordingmode count
attr source packetSent
attr title "packets sent, count"
scalar SensorNetwork.server.udp packetSent:sum(packetBytes) 0
attr interpolationmode none
attr recordingmode sum(packetBytes)
attr source packetSent
attr title "packets sent, sum(packetBytes)"
scalar SensorNetwork.server.udp passedUpPk:count 0
attr interpolationmode none
attr recordingmode count
attr source packetSentToUpper
attr title "packets passed up, count"
scalar SensorNetwork.server.udp droppedPkWrongPort:count 0
attr interpolationmode none
attr recordingmode count
attr source packetDropReasonIsNoPortFound(packetDropped)
attr title "packets dropped (wrong port), count"
scalar SensorNetwork.server.udp droppedPkBadChecksum:count 0
attr interpolationmode none
attr recordingmode count
attr source packetDropReasonIsIncorrectlyReceived(packetDropped)
attr title "packets dropped (checksum error), count"
par SensorNetwork.server.tcp typename "\"inet.transportlayer.tcp.Tcp\""
par SensorNetwork.server.tcp crcMode "\"declared\""
attr enum declared,computed
par SensorNetwork.server.tcp advertisedWindow 7504
par SensorNetwork.server.tcp delayedAcksEnabled false
par SensorNetwork.server.tcp nagleEnabled true
par SensorNetwork.server.tcp limitedTransmitEnabled false
par SensorNetwork.server.tcp increasedIWEnabled false
par SensorNetwork.server.tcp sackSupport false
par SensorNetwork.server.tcp windowScalingSupport false
par SensorNetwork.server.tcp windowScalingFactor -1
par SensorNetwork.server.tcp timestampSupport false
par SensorNetwork.server.tcp mss 536
par SensorNetwork.server.tcp msl 120s
attr unit s
par SensorNetwork.server.tcp tcpAlgorithmClass "\"TcpReno\""
par SensorNetwork.server.tcp useDataNotification false
par SensorNetwork.server.tcp dupthresh 3
par SensorNetwork.server.tcp initialSsthresh 4294967295
par SensorNetwork.server.tcp stopOperationExtraTime 0s
attr unit s
par SensorNetwork.server.tcp stopOperationTimeout 2s
attr unit s
par SensorNetwork.server.tcp ecnWillingness false
par SensorNetwork.server.tcp dctcpGamma 0.0625
par SensorNetwork.server.tn typename "\"inet.common.MessageDispatcher\""
par SensorNetwork.server.tn displayStringTextFormat "\"processed %p pk (%l)\""
par SensorNetwork.server.tn forwardServiceRegistration true
par SensorNetwork.server.tn forwardProtocolRegistration true
par SensorNetwork.server.app[0] typename "\"inet.applications.udpapp.UdpSink\""
par SensorNetwork.server.app[0] interfaceTableModule "\"SensorNetwork.server.interfaceTable\""
par SensorNetwork.server.app[0] startTime 0s
attr unit s
par SensorNetwork.server.app[0] stopTime -1s
attr unit s
par SensorNetwork.server.app[0] localPort 1000
par SensorNetwork.server.app[0] receiveBroadcast false
par SensorNetwork.server.app[0] multicastGroup "\"\""
par SensorNetwork.server.app[0] multicastSources "\"\""
par SensorNetwork.server.app[0] stopOperationExtraTime -1s
attr unit s
par SensorNetwork.server.app[0] stopOperationTimeout 2s
attr unit s
scalar SensorNetwork.server.app[0] packetReceived:count 0
attr interpolationmode none
attr recordingmode count
attr source packetReceived
attr title "packets received, count"
scalar SensorNetwork.server.app[0] packetReceived:sum(packetBytes) 0
attr interpolationmode none
attr recordingmode sum(packetBytes)
attr source packetReceived
attr title "packets received, sum(packetBytes)"
statistic SensorNetwork.server.app[0] endToEndDelay:histogram
field count 0
field mean -nan
field stddev nan
field min nan
field max nan
field sum 0
field sqrsum 0
attr interpolationmode none
attr recordingmode histogram
attr source dataAge(packetReceived)
attr title "end-to-end delay"
attr unit s
bin	-inf	0
bin	0	0
bin	1	0
par SensorNetwork.server.at typename "\"inet.common.MessageDispatcher\""
par SensorNetwork.server.at displayStringTextFormat "\"processed %p pk (%l)\""
par SensorNetwork.server.at forwardServiceRegistration true
par SensorNetwork.server.at forwardProtocolRegistration true
par SensorNetwork.server typename "\"inet.node.inet.StandardHost\""
par SensorNetwork.server hasStatus true
par SensorNetwork.server osgModel "\"\""
par SensorNetwork.server osgModelColor "\"\""
par SensorNetwork.server canvasImage "\"\""
par SensorNetwork.server canvasImageColor "\"\""
par SensorNetwork.server recordPcap false
par SensorNetwork.server numPcapRecorders 0
par SensorNetwork.server numLoInterfaces 1
par SensorNetwork.server numWlanInterfaces 0
par SensorNetwork.server numEthInterfaces 0
par SensorNetwork.server numPppInterfaces 0
par SensorNetwork.server numTunInterfaces 0
par SensorNetwork.server numVirtInterfaces 0
par SensorNetwork.server fcsMode "\"declared\""
attr enum declared,computed
par SensorNetwork.server hasIpv4 true
par SensorNetwork.server hasIpv6 false
par SensorNetwork.server hasGn false
par SensorNetwork.server forwarding false
par SensorNetwork.server multicastForwarding false
par SensorNetwork.server hasUdp true
par SensorNetwork.server hasTcp true
par SensorNetwork.server hasSctp false
par SensorNetwork.server numApps 1
par SensorNetwork typename "\"SensorNetwork\""

