version 3
run Attacco_Silenzioso-0-20251005-13:20:56-8795
attr configname Attacco_Silenzioso
attr datetime 20251005-13:20:56
attr datetimef 20251005-132056
attr experiment Attacco_Silenzioso
attr inifile omnetpp802.15.4.ini
attr iterationvars ""
attr iterationvarsd ""
attr iterationvarsf ""
attr measurement ""
attr network NetworkA
attr processid 8795
attr repetition 0
attr replication #0
attr resultdir results
attr runnumber 0
attr seedset 0
config image-path ../../inet-4.5.4/images
config extends safe
config *.maliciousNode.numApps 1
config *.maliciousNode.app[0].typename UdpBasicApp
config *.maliciousNode.app[0].destAddresses "\"10.0.0.5\""
config *.maliciousNode.app[0].destPort 4000
config *.maliciousNode.app[0].messageLength 10B
config *.maliciousNode.app[0].sendInterval uniform(0.025s,0.5s)
config *.maliciousNode.app[0].startTime 0s
config *.maliciousNode.wlan[*].mac.ctrlFrameLength 20B
config *.maliciousNode.wlan[*].radio.transmitter.bitrate "125000 bps"
config network NetworkA
config sim-time-limit 100s
config output-vector-file results802154/run-Attacco_Silenzioso-0/results.vec
config output-scalar-file results802154/run-Attacco_Silenzioso-0/results.sca
config **.wlan*.radio.initialRadioMode "\"sleep\""
config **.wlan*.mac.typename Ieee802154Mac
config **.wlan*.queue.typename DropTailQueue
config **.wlan*.queue.packetCapacity 50
config **.wlan[*].typename WirelessInterface
config **.wlan[*].radio.typename Ieee802154NarrowbandScalarRadio
config **.wlan*.mac.animation true
config **.arp.typename GlobalArp
config **.maxTransmissionDuration 100ms
config *.gateway.forwarding true
config *.sensor*.numApps 1
config *.sensor*.app[0].typename UdpBasicApp
config *.sensor*.app[0].destAddresses "\"server\""
config *.sensor*.app[0].destPort 1000
config *.sensor*.app[0].sendInterval 1s
config *.sensor*.app[0].startTime exponential(1s)
config *.sensor*.app[0].messageLength 10B
config *.gateway.numApps 1
config *.gateway.app[0].typename UdpSink
config *.gateway.app[0].localPort 4000
config *.server.numApps 1
config *.server.app[0].typename UdpSink
config *.server.app[0].localPort 1000
config *.visualizer.routingTableVisualizer.lineShift 0
config *.visualizer.infoVisualizer.modules "\"*.server.app[0]\""
config *.visualizer.networkRouteVisualizer.displayRoutes true
config *.visualizer.physicalLinkVisualizer.displayLinks true
config *.visualizer.energyStorageVisualizer.displayEnergyStorages true
config *.sensor*.energyStorage.nominalCapacity 0.5J
config *.sensor*.energyManagement.nodeShutdownCapacity 0.005J
config *.gateway.energyStorage.nominalCapacity 5J
config *.gateway.energyManagement.nodeShutdownCapacity 0.005J

vector 0 NetworkA.sensor4.energyStorage powerConsumption:vector ETV
attr interpolationmode sample-hold
attr recordingmode vector
attr source powerConsumptionChanged
attr title "Power consumption"
attr unit W
vector 1 NetworkA.sensor4.energyStorage powerGeneration:vector ETV
attr interpolationmode sample-hold
attr recordingmode vector
attr source powerGenerationChanged
attr title "Power generation"
attr unit W
vector 2 NetworkA.sensor4.energyStorage residualEnergyCapacity:vector ETV
attr interpolationmode linear
attr recordingmode vector
attr source residualEnergyCapacityChanged
attr title "Residual energy capacity"
attr unit J
vector 3 NetworkA.sensor4.lo[0].lo rcvdPkFromHl:vector(packetBytes) ETV
attr interpolationmode none
attr recordingmode vector(packetBytes)
attr source packetReceivedFromUpper
attr title "packets received from higher layer, packetBytes"
vector 4 NetworkA.sensor4.lo[0].lo passedUpPk:vector(packetBytes) ETV
attr interpolationmode none
attr recordingmode vector(packetBytes)
attr source packetSentToUpper
attr title "packets passed to higher layer, packetBytes"
vector 5 NetworkA.sensor4.lo[0] packetDropInterfaceDown:vector(packetBytes) ETV
attr interpolationmode none
attr recordingmode vector(packetBytes)
attr source packetDropReasonIsInterfaceDown(packetDropped)
attr title "packet drops: interface down, packetBytes"
vector 6 NetworkA.sensor4.lo[0] packetDropNoCarrier:vector(packetBytes) ETV
attr interpolationmode none
attr recordingmode vector(packetBytes)
attr source packetDropReasonIsNoCarrier(packetDropped)
attr title "packet drops: no carrier, packetBytes"
vector 7 NetworkA.sensor4.wlan[0].queue queueLength:vector ETV
attr autoWarmupFilter false
attr interpolationmode sample-hold
attr recordingmode vector
attr source "warmup(atomic(constant0(packetPushEnded) + count(packetPushStarted) - count(packetPulled) - count(packetRemoved) - count(packetDropped)))"
attr title "queue length"
attr unit pk
vector 8 NetworkA.sensor4.wlan[0].queue queueBitLength:vector ETV
attr autoWarmupFilter false
attr interpolationmode sample-hold
attr recordingmode vector
attr source "warmup(atomic(constant0(packetPushEnded) + sum(packetLength(packetPushStarted)) - sum(packetLength(packetPulled)) - sum(packetLength(packetRemoved)) - sum(packetLength(packetDropped))))"
attr title "queue bit length"
attr unit b
vector 9 NetworkA.sensor4.wlan[0].queue queueingTime:vector ETV
attr interpolationmode none
attr recordingmode vector
attr source queueingTime(packetPulled)
attr title "queueing times"
attr unit s
vector 10 NetworkA.sensor4.wlan[0].queue incomingPacketLengths:vector ETV
attr interpolationmode none
attr recordingmode vector
attr source packetLength(packetPushStarted)
attr title "incoming packet lengths"
attr unit b
vector 11 NetworkA.sensor4.wlan[0].queue incomingDataRate:vector ETV
attr interpolationmode linear
attr recordingmode vector
attr source throughput(packetPushStarted)
attr title "incoming datarate"
attr unit bps
vector 12 NetworkA.sensor4.wlan[0].queue outgoingPacketLengths:vector ETV
attr interpolationmode none
attr recordingmode vector
attr source packetLength(packetPulled)
attr title "outgoing packet lengths"
attr unit b
vector 13 NetworkA.sensor4.wlan[0].queue outgoingDataRate:vector ETV
attr interpolationmode linear
attr recordingmode vector
attr source throughput(packetPulled)
attr title "outgoing datarate"
attr unit bps
vector 14 NetworkA.sensor4.wlan[0].queue droppedPacketLengthsQueueOverflow:vector ETV
attr interpolationmode none
attr recordingmode vector
attr source packetLength(packetDropReasonIsQueueOverflow(packetDropped))
attr title "dropped packet lengths: queue overflow"
attr unit b
vector 15 NetworkA.sensor4.wlan[0].queue flowQueueingTime:vector ETV
attr interpolationmode none
attr recordingmode vector
attr source queueingTime(demuxFlow(packetPulled))
attr title "flow queueing times"
attr unit s
vector 16 NetworkA.sensor4.wlan[0].queue flowIncomingDataRate:vector ETV
attr interpolationmode linear
attr recordingmode vector
attr source throughput(flowPacketLength(demuxFlow(packetPushStarted)))
attr title "flow specific incoming data rate"
attr unit bps
vector 17 NetworkA.sensor4.wlan[0].queue flowOutgoingDataRate:vector ETV
attr interpolationmode linear
attr recordingmode vector
attr source throughput(flowPacketLength(demuxFlow(packetPulled)))
attr title "flow specific outgoing data rate"
attr unit bps
vector 18 NetworkA.sensor4.wlan[0].mac packetDropNotAddressToUs:vector(packetBytes) ETV
attr interpolationmode none
attr recordingmode vector(packetBytes)
attr source packetDropReasonIsNotAddressedToUs(packetDropped)
attr title "packet drop: not addressed to us, packetBytes"
vector 19 NetworkA.sensor4.wlan[0].mac packetDropIncorrectlyReceived:vector(packetBytes) ETV
attr interpolationmode none
attr recordingmode vector(packetBytes)
attr source packetDropReasonIsIncorrectlyReceived(packetDropped)
attr title "packet drop: incorrectly received, packetBytes"
vector 20 NetworkA.sensor4.wlan[0].mac packetDropQueueOverflow:vector(packetBytes) ETV
attr interpolationmode none
attr recordingmode vector(packetBytes)
attr source packetDropReasonIsQueueOverflow(packetDropped)
attr title "packet drop: queue overflow, packetBytes"
vector 21 NetworkA.sensor4.wlan[0].mac packetDropRetryLimitReached:vector(packetBytes) ETV
attr interpolationmode none
attr recordingmode vector(packetBytes)
attr source packetDropReasonIsRetryLimitReached(packetDropped)
attr title "packet drop: retry limit reached, packetBytes"
vector 22 NetworkA.sensor4.wlan[0].mac packetDropBackoffLimitReached:vector(packetBytes) ETV
attr interpolationmode none
attr recordingmode vector(packetBytes)
attr source packetDropReasonIsCongestion(packetDropped)
attr title "packet drop: backoff limit reached, packetBytes"
vector 23 NetworkA.sensor4.wlan[0].radio.energyConsumer powerConsumption:vector ETV
attr interpolationmode sample-hold
attr recordingmode vector
attr source powerConsumptionChanged
attr title "Power consumption"
attr unit W
vector 24 NetworkA.sensor4.wlan[0].radio.energyConsumer rxPowerConsumptionVector:vector ETV
attr interpolationmode sample-hold
attr recordingmode vector
attr source rxPowerConsumption
attr title "RX Power consumption over time"
attr unit W
vector 25 NetworkA.sensor4.wlan[0].radio.energyConsumer txPowerConsumptionVector:vector ETV
attr interpolationmode sample-hold
attr recordingmode vector
attr source txPowerConsumption
attr title "TX Power consumption over time"
attr unit W
vector 26 NetworkA.sensor4.wlan[0].radio.energyConsumer sleepTimeVector:vector ETV
attr interpolationmode sample-hold
attr recordingmode vector
attr source sleepTime
attr title "Total sleep time over time"
attr unit s
vector 27 NetworkA.sensor4.wlan[0].radio radioMode:vector ETV
attr interpolationmode sample-hold
attr recordingmode vector
attr source radioModeChanged
attr title "Radio mode"
vector 28 NetworkA.sensor4.wlan[0].radio receptionState:vector ETV
attr interpolationmode sample-hold
attr recordingmode vector
attr source receptionStateChanged
attr title "Radio reception state"
vector 29 NetworkA.sensor4.wlan[0].radio transmissionState:vector ETV
attr interpolationmode sample-hold
attr recordingmode vector
attr source transmissionStateChanged
attr title "Radio transmission state"
vector 30 NetworkA.sensor4.wlan[0] packetDropInterfaceDown:vector(packetBytes) ETV
attr interpolationmode none
attr recordingmode vector(packetBytes)
attr source packetDropReasonIsInterfaceDown(packetDropped)
attr title "packet drops: interface down, packetBytes"
vector 31 NetworkA.sensor4.wlan[0] packetDropNoCarrier:vector(packetBytes) ETV
attr interpolationmode none
attr recordingmode vector(packetBytes)
attr source packetDropReasonIsNoCarrier(packetDropped)
attr title "packet drops: no carrier, packetBytes"
vector 32 NetworkA.sensor4.ipv4.ip packetDropAddressResolutionFailed:vector(packetBytes) ETV
attr interpolationmode none
attr recordingmode vector(packetBytes)
attr source packetDropReasonIsAddressResolutionFailed(packetDropped)
attr title "packet drop: address resolution failed, packetBytes"
vector 33 NetworkA.sensor4.ipv4.ip packetDropHopLimitReached:vector(packetBytes) ETV
attr interpolationmode none
attr recordingmode vector(packetBytes)
attr source packetDropReasonIsHopLimitReached(packetDropped)
attr title "packet drop: hop limit reached, packetBytes"
vector 34 NetworkA.sensor4.ipv4.ip packetDropForwardingDisabled:vector(packetBytes) ETV
attr interpolationmode none
attr recordingmode vector(packetBytes)
attr source packetDropReasonIsForwardingDisabled(packetDropped)
attr title "packet drop: forwarding disabled, packetBytes"
vector 35 NetworkA.sensor4.ipv4.ip packetDropNoInterfaceFound:vector(packetBytes) ETV
attr interpolationmode none
attr recordingmode vector(packetBytes)
attr source packetDropReasonIsNoInterfaceFound(packetDropped)
attr title "packet drop: no interface found, packetBytes"
vector 36 NetworkA.sensor4.ipv4.ip packetDropNoRouteFound:vector(packetBytes) ETV
attr interpolationmode none
attr recordingmode vector(packetBytes)
attr source packetDropReasonIsNoRouteFound(packetDropped)
attr title "packet drop: no route found, packetBytes"
vector 37 NetworkA.sensor4.ipv4.ip packetDropUndefined:vector(packetBytes) ETV
attr interpolationmode none
attr recordingmode vector(packetBytes)
attr source packetDropReasonIsUndefined(packetDropped)
attr title "packet drop: undefined, packetBytes"
vector 38 NetworkA.sensor4.udp packetSent:vector(packetBytes) ETV
attr interpolationmode none
attr recordingmode vector(packetBytes)
attr source packetSent
attr title "packets sent, packetBytes"
vector 39 NetworkA.sensor4.udp packetReceived:vector(packetBytes) ETV
attr interpolationmode none
attr recordingmode vector(packetBytes)
attr source packetReceived
attr title "packets received, packetBytes"
vector 40 NetworkA.sensor4.udp passedUpPk:vector(count) ETV
attr interpolationmode none
attr recordingmode vector(count)
attr source packetSentToUpper
attr title "packets passed up, count"
vector 41 NetworkA.sensor4.udp droppedPkWrongPort:vector(count) ETV
attr interpolationmode none
attr recordingmode vector(count)
attr source packetDropReasonIsNoPortFound(packetDropped)
attr title "packets dropped (wrong port), count"
vector 42 NetworkA.sensor4.udp droppedPkBadChecksum:vector(count) ETV
attr interpolationmode none
attr recordingmode vector(count)
attr source packetDropReasonIsIncorrectlyReceived(packetDropped)
attr title "packets dropped (checksum error), count"
vector 43 NetworkA.sensor4.app[0] packetReceived:vector(packetBytes) ETV
attr interpolationmode none
attr recordingmode vector(packetBytes)
attr source packetReceived
attr title "packets received, packetBytes"
vector 44 NetworkA.sensor4.app[0] throughput:vector ETV
attr recordingmode vector
attr source throughput(packetReceived)
attr title throughput
attr unit bps
vector 45 NetworkA.sensor4.app[0] packetSent:vector(packetBytes) ETV
attr interpolationmode none
attr recordingmode vector(packetBytes)
attr source packetSent
attr title "packets sent, packetBytes"
vector 46 NetworkA.sensor4.app[0] rcvdPkLifetime:vector ETV
attr interpolationmode none
attr recordingmode vector
attr source dataAge(packetReceived)
attr title "received packet lifetime"
attr unit s
vector 47 NetworkA.sensor4.app[0] rcvdPkSeqNo:vector ETV
attr interpolationmode none
attr recordingmode vector
attr source appPkSeqNo(packetReceived)
attr title "received packet sequence number"
vector 48 NetworkA.sensor1.energyStorage powerConsumption:vector ETV
attr interpolationmode sample-hold
attr recordingmode vector
attr source powerConsumptionChanged
attr title "Power consumption"
attr unit W
vector 49 NetworkA.sensor1.energyStorage powerGeneration:vector ETV
attr interpolationmode sample-hold
attr recordingmode vector
attr source powerGenerationChanged
attr title "Power generation"
attr unit W
vector 50 NetworkA.sensor1.energyStorage residualEnergyCapacity:vector ETV
attr interpolationmode linear
attr recordingmode vector
attr source residualEnergyCapacityChanged
attr title "Residual energy capacity"
attr unit J
vector 51 NetworkA.sensor1.lo[0].lo rcvdPkFromHl:vector(packetBytes) ETV
attr interpolationmode none
attr recordingmode vector(packetBytes)
attr source packetReceivedFromUpper
attr title "packets received from higher layer, packetBytes"
vector 52 NetworkA.sensor1.lo[0].lo passedUpPk:vector(packetBytes) ETV
attr interpolationmode none
attr recordingmode vector(packetBytes)
attr source packetSentToUpper
attr title "packets passed to higher layer, packetBytes"
vector 53 NetworkA.sensor1.lo[0] packetDropInterfaceDown:vector(packetBytes) ETV
attr interpolationmode none
attr recordingmode vector(packetBytes)
attr source packetDropReasonIsInterfaceDown(packetDropped)
attr title "packet drops: interface down, packetBytes"
vector 54 NetworkA.sensor1.lo[0] packetDropNoCarrier:vector(packetBytes) ETV
attr interpolationmode none
attr recordingmode vector(packetBytes)
attr source packetDropReasonIsNoCarrier(packetDropped)
attr title "packet drops: no carrier, packetBytes"
vector 55 NetworkA.sensor1.wlan[0].queue queueLength:vector ETV
attr autoWarmupFilter false
attr interpolationmode sample-hold
attr recordingmode vector
attr source "warmup(atomic(constant0(packetPushEnded) + count(packetPushStarted) - count(packetPulled) - count(packetRemoved) - count(packetDropped)))"
attr title "queue length"
attr unit pk
vector 56 NetworkA.sensor1.wlan[0].queue queueBitLength:vector ETV
attr autoWarmupFilter false
attr interpolationmode sample-hold
attr recordingmode vector
attr source "warmup(atomic(constant0(packetPushEnded) + sum(packetLength(packetPushStarted)) - sum(packetLength(packetPulled)) - sum(packetLength(packetRemoved)) - sum(packetLength(packetDropped))))"
attr title "queue bit length"
attr unit b
vector 57 NetworkA.sensor1.wlan[0].queue queueingTime:vector ETV
attr interpolationmode none
attr recordingmode vector
attr source queueingTime(packetPulled)
attr title "queueing times"
attr unit s
vector 58 NetworkA.sensor1.wlan[0].queue incomingPacketLengths:vector ETV
attr interpolationmode none
attr recordingmode vector
attr source packetLength(packetPushStarted)
attr title "incoming packet lengths"
attr unit b
vector 59 NetworkA.sensor1.wlan[0].queue incomingDataRate:vector ETV
attr interpolationmode linear
attr recordingmode vector
attr source throughput(packetPushStarted)
attr title "incoming datarate"
attr unit bps
vector 60 NetworkA.sensor1.wlan[0].queue outgoingPacketLengths:vector ETV
attr interpolationmode none
attr recordingmode vector
attr source packetLength(packetPulled)
attr title "outgoing packet lengths"
attr unit b
vector 61 NetworkA.sensor1.wlan[0].queue outgoingDataRate:vector ETV
attr interpolationmode linear
attr recordingmode vector
attr source throughput(packetPulled)
attr title "outgoing datarate"
attr unit bps
vector 62 NetworkA.sensor1.wlan[0].queue droppedPacketLengthsQueueOverflow:vector ETV
attr interpolationmode none
attr recordingmode vector
attr source packetLength(packetDropReasonIsQueueOverflow(packetDropped))
attr title "dropped packet lengths: queue overflow"
attr unit b
vector 63 NetworkA.sensor1.wlan[0].queue flowQueueingTime:vector ETV
attr interpolationmode none
attr recordingmode vector
attr source queueingTime(demuxFlow(packetPulled))
attr title "flow queueing times"
attr unit s
vector 64 NetworkA.sensor1.wlan[0].queue flowIncomingDataRate:vector ETV
attr interpolationmode linear
attr recordingmode vector
attr source throughput(flowPacketLength(demuxFlow(packetPushStarted)))
attr title "flow specific incoming data rate"
attr unit bps
vector 65 NetworkA.sensor1.wlan[0].queue flowOutgoingDataRate:vector ETV
attr interpolationmode linear
attr recordingmode vector
attr source throughput(flowPacketLength(demuxFlow(packetPulled)))
attr title "flow specific outgoing data rate"
attr unit bps
vector 66 NetworkA.sensor1.wlan[0].mac packetDropNotAddressToUs:vector(packetBytes) ETV
attr interpolationmode none
attr recordingmode vector(packetBytes)
attr source packetDropReasonIsNotAddressedToUs(packetDropped)
attr title "packet drop: not addressed to us, packetBytes"
vector 67 NetworkA.sensor1.wlan[0].mac packetDropIncorrectlyReceived:vector(packetBytes) ETV
attr interpolationmode none
attr recordingmode vector(packetBytes)
attr source packetDropReasonIsIncorrectlyReceived(packetDropped)
attr title "packet drop: incorrectly received, packetBytes"
vector 68 NetworkA.sensor1.wlan[0].mac packetDropQueueOverflow:vector(packetBytes) ETV
attr interpolationmode none
attr recordingmode vector(packetBytes)
attr source packetDropReasonIsQueueOverflow(packetDropped)
attr title "packet drop: queue overflow, packetBytes"
vector 69 NetworkA.sensor1.wlan[0].mac packetDropRetryLimitReached:vector(packetBytes) ETV
attr interpolationmode none
attr recordingmode vector(packetBytes)
attr source packetDropReasonIsRetryLimitReached(packetDropped)
attr title "packet drop: retry limit reached, packetBytes"
vector 70 NetworkA.sensor1.wlan[0].mac packetDropBackoffLimitReached:vector(packetBytes) ETV
attr interpolationmode none
attr recordingmode vector(packetBytes)
attr source packetDropReasonIsCongestion(packetDropped)
attr title "packet drop: backoff limit reached, packetBytes"
vector 71 NetworkA.sensor1.wlan[0].radio.energyConsumer powerConsumption:vector ETV
attr interpolationmode sample-hold
attr recordingmode vector
attr source powerConsumptionChanged
attr title "Power consumption"
attr unit W
vector 72 NetworkA.sensor1.wlan[0].radio.energyConsumer rxPowerConsumptionVector:vector ETV
attr interpolationmode sample-hold
attr recordingmode vector
attr source rxPowerConsumption
attr title "RX Power consumption over time"
attr unit W
vector 73 NetworkA.sensor1.wlan[0].radio.energyConsumer txPowerConsumptionVector:vector ETV
attr interpolationmode sample-hold
attr recordingmode vector
attr source txPowerConsumption
attr title "TX Power consumption over time"
attr unit W
vector 74 NetworkA.sensor1.wlan[0].radio.energyConsumer sleepTimeVector:vector ETV
attr interpolationmode sample-hold
attr recordingmode vector
attr source sleepTime
attr title "Total sleep time over time"
attr unit s
vector 75 NetworkA.sensor1.wlan[0].radio radioMode:vector ETV
attr interpolationmode sample-hold
attr recordingmode vector
attr source radioModeChanged
attr title "Radio mode"
vector 76 NetworkA.sensor1.wlan[0].radio receptionState:vector ETV
attr interpolationmode sample-hold
attr recordingmode vector
attr source receptionStateChanged
attr title "Radio reception state"
vector 77 NetworkA.sensor1.wlan[0].radio transmissionState:vector ETV
attr interpolationmode sample-hold
attr recordingmode vector
attr source transmissionStateChanged
attr title "Radio transmission state"
vector 78 NetworkA.sensor1.wlan[0] packetDropInterfaceDown:vector(packetBytes) ETV
attr interpolationmode none
attr recordingmode vector(packetBytes)
attr source packetDropReasonIsInterfaceDown(packetDropped)
attr title "packet drops: interface down, packetBytes"
vector 79 NetworkA.sensor1.wlan[0] packetDropNoCarrier:vector(packetBytes) ETV
attr interpolationmode none
attr recordingmode vector(packetBytes)
attr source packetDropReasonIsNoCarrier(packetDropped)
attr title "packet drops: no carrier, packetBytes"
vector 80 NetworkA.sensor1.ipv4.ip packetDropAddressResolutionFailed:vector(packetBytes) ETV
attr interpolationmode none
attr recordingmode vector(packetBytes)
attr source packetDropReasonIsAddressResolutionFailed(packetDropped)
attr title "packet drop: address resolution failed, packetBytes"
vector 81 NetworkA.sensor1.ipv4.ip packetDropHopLimitReached:vector(packetBytes) ETV
attr interpolationmode none
attr recordingmode vector(packetBytes)
attr source packetDropReasonIsHopLimitReached(packetDropped)
attr title "packet drop: hop limit reached, packetBytes"
vector 82 NetworkA.sensor1.ipv4.ip packetDropForwardingDisabled:vector(packetBytes) ETV
attr interpolationmode none
attr recordingmode vector(packetBytes)
attr source packetDropReasonIsForwardingDisabled(packetDropped)
attr title "packet drop: forwarding disabled, packetBytes"
vector 83 NetworkA.sensor1.ipv4.ip packetDropNoInterfaceFound:vector(packetBytes) ETV
attr interpolationmode none
attr recordingmode vector(packetBytes)
attr source packetDropReasonIsNoInterfaceFound(packetDropped)
attr title "packet drop: no interface found, packetBytes"
vector 84 NetworkA.sensor1.ipv4.ip packetDropNoRouteFound:vector(packetBytes) ETV
attr interpolationmode none
attr recordingmode vector(packetBytes)
attr source packetDropReasonIsNoRouteFound(packetDropped)
attr title "packet drop: no route found, packetBytes"
vector 85 NetworkA.sensor1.ipv4.ip packetDropUndefined:vector(packetBytes) ETV
attr interpolationmode none
attr recordingmode vector(packetBytes)
attr source packetDropReasonIsUndefined(packetDropped)
attr title "packet drop: undefined, packetBytes"
vector 86 NetworkA.sensor1.udp packetSent:vector(packetBytes) ETV
attr interpolationmode none
attr recordingmode vector(packetBytes)
attr source packetSent
attr title "packets sent, packetBytes"
vector 87 NetworkA.sensor1.udp packetReceived:vector(packetBytes) ETV
attr interpolationmode none
attr recordingmode vector(packetBytes)
attr source packetReceived
attr title "packets received, packetBytes"
vector 88 NetworkA.sensor1.udp passedUpPk:vector(count) ETV
attr interpolationmode none
attr recordingmode vector(count)
attr source packetSentToUpper
attr title "packets passed up, count"
vector 89 NetworkA.sensor1.udp droppedPkWrongPort:vector(count) ETV
attr interpolationmode none
attr recordingmode vector(count)
attr source packetDropReasonIsNoPortFound(packetDropped)
attr title "packets dropped (wrong port), count"
vector 90 NetworkA.sensor1.udp droppedPkBadChecksum:vector(count) ETV
attr interpolationmode none
attr recordingmode vector(count)
attr source packetDropReasonIsIncorrectlyReceived(packetDropped)
attr title "packets dropped (checksum error), count"
vector 91 NetworkA.sensor1.app[0] packetReceived:vector(packetBytes) ETV
attr interpolationmode none
attr recordingmode vector(packetBytes)
attr source packetReceived
attr title "packets received, packetBytes"
vector 92 NetworkA.sensor1.app[0] throughput:vector ETV
attr recordingmode vector
attr source throughput(packetReceived)
attr title throughput
attr unit bps
vector 93 NetworkA.sensor1.app[0] packetSent:vector(packetBytes) ETV
attr interpolationmode none
attr recordingmode vector(packetBytes)
attr source packetSent
attr title "packets sent, packetBytes"
vector 94 NetworkA.sensor1.app[0] rcvdPkLifetime:vector ETV
attr interpolationmode none
attr recordingmode vector
attr source dataAge(packetReceived)
attr title "received packet lifetime"
attr unit s
vector 95 NetworkA.sensor1.app[0] rcvdPkSeqNo:vector ETV
attr interpolationmode none
attr recordingmode vector
attr source appPkSeqNo(packetReceived)
attr title "received packet sequence number"
vector 96 NetworkA.sensor2.energyStorage powerConsumption:vector ETV
attr interpolationmode sample-hold
attr recordingmode vector
attr source powerConsumptionChanged
attr title "Power consumption"
attr unit W
vector 97 NetworkA.sensor2.energyStorage powerGeneration:vector ETV
attr interpolationmode sample-hold
attr recordingmode vector
attr source powerGenerationChanged
attr title "Power generation"
attr unit W
vector 98 NetworkA.sensor2.energyStorage residualEnergyCapacity:vector ETV
attr interpolationmode linear
attr recordingmode vector
attr source residualEnergyCapacityChanged
attr title "Residual energy capacity"
attr unit J
vector 99 NetworkA.sensor2.lo[0].lo rcvdPkFromHl:vector(packetBytes) ETV
attr interpolationmode none
attr recordingmode vector(packetBytes)
attr source packetReceivedFromUpper
attr title "packets received from higher layer, packetBytes"
vector 100 NetworkA.sensor2.lo[0].lo passedUpPk:vector(packetBytes) ETV
attr interpolationmode none
attr recordingmode vector(packetBytes)
attr source packetSentToUpper
attr title "packets passed to higher layer, packetBytes"
vector 101 NetworkA.sensor2.lo[0] packetDropInterfaceDown:vector(packetBytes) ETV
attr interpolationmode none
attr recordingmode vector(packetBytes)
attr source packetDropReasonIsInterfaceDown(packetDropped)
attr title "packet drops: interface down, packetBytes"
vector 102 NetworkA.sensor2.lo[0] packetDropNoCarrier:vector(packetBytes) ETV
attr interpolationmode none
attr recordingmode vector(packetBytes)
attr source packetDropReasonIsNoCarrier(packetDropped)
attr title "packet drops: no carrier, packetBytes"
vector 103 NetworkA.sensor2.wlan[0].queue queueLength:vector ETV
attr autoWarmupFilter false
attr interpolationmode sample-hold
attr recordingmode vector
attr source "warmup(atomic(constant0(packetPushEnded) + count(packetPushStarted) - count(packetPulled) - count(packetRemoved) - count(packetDropped)))"
attr title "queue length"
attr unit pk
vector 104 NetworkA.sensor2.wlan[0].queue queueBitLength:vector ETV
attr autoWarmupFilter false
attr interpolationmode sample-hold
attr recordingmode vector
attr source "warmup(atomic(constant0(packetPushEnded) + sum(packetLength(packetPushStarted)) - sum(packetLength(packetPulled)) - sum(packetLength(packetRemoved)) - sum(packetLength(packetDropped))))"
attr title "queue bit length"
attr unit b
vector 105 NetworkA.sensor2.wlan[0].queue queueingTime:vector ETV
attr interpolationmode none
attr recordingmode vector
attr source queueingTime(packetPulled)
attr title "queueing times"
attr unit s
vector 106 NetworkA.sensor2.wlan[0].queue incomingPacketLengths:vector ETV
attr interpolationmode none
attr recordingmode vector
attr source packetLength(packetPushStarted)
attr title "incoming packet lengths"
attr unit b
vector 107 NetworkA.sensor2.wlan[0].queue incomingDataRate:vector ETV
attr interpolationmode linear
attr recordingmode vector
attr source throughput(packetPushStarted)
attr title "incoming datarate"
attr unit bps
vector 108 NetworkA.sensor2.wlan[0].queue outgoingPacketLengths:vector ETV
attr interpolationmode none
attr recordingmode vector
attr source packetLength(packetPulled)
attr title "outgoing packet lengths"
attr unit b
vector 109 NetworkA.sensor2.wlan[0].queue outgoingDataRate:vector ETV
attr interpolationmode linear
attr recordingmode vector
attr source throughput(packetPulled)
attr title "outgoing datarate"
attr unit bps
vector 110 NetworkA.sensor2.wlan[0].queue droppedPacketLengthsQueueOverflow:vector ETV
attr interpolationmode none
attr recordingmode vector
attr source packetLength(packetDropReasonIsQueueOverflow(packetDropped))
attr title "dropped packet lengths: queue overflow"
attr unit b
vector 111 NetworkA.sensor2.wlan[0].queue flowQueueingTime:vector ETV
attr interpolationmode none
attr recordingmode vector
attr source queueingTime(demuxFlow(packetPulled))
attr title "flow queueing times"
attr unit s
vector 112 NetworkA.sensor2.wlan[0].queue flowIncomingDataRate:vector ETV
attr interpolationmode linear
attr recordingmode vector
attr source throughput(flowPacketLength(demuxFlow(packetPushStarted)))
attr title "flow specific incoming data rate"
attr unit bps
vector 113 NetworkA.sensor2.wlan[0].queue flowOutgoingDataRate:vector ETV
attr interpolationmode linear
attr recordingmode vector
attr source throughput(flowPacketLength(demuxFlow(packetPulled)))
attr title "flow specific outgoing data rate"
attr unit bps
vector 114 NetworkA.sensor2.wlan[0].mac packetDropNotAddressToUs:vector(packetBytes) ETV
attr interpolationmode none
attr recordingmode vector(packetBytes)
attr source packetDropReasonIsNotAddressedToUs(packetDropped)
attr title "packet drop: not addressed to us, packetBytes"
vector 115 NetworkA.sensor2.wlan[0].mac packetDropIncorrectlyReceived:vector(packetBytes) ETV
attr interpolationmode none
attr recordingmode vector(packetBytes)
attr source packetDropReasonIsIncorrectlyReceived(packetDropped)
attr title "packet drop: incorrectly received, packetBytes"
vector 116 NetworkA.sensor2.wlan[0].mac packetDropQueueOverflow:vector(packetBytes) ETV
attr interpolationmode none
attr recordingmode vector(packetBytes)
attr source packetDropReasonIsQueueOverflow(packetDropped)
attr title "packet drop: queue overflow, packetBytes"
vector 117 NetworkA.sensor2.wlan[0].mac packetDropRetryLimitReached:vector(packetBytes) ETV
attr interpolationmode none
attr recordingmode vector(packetBytes)
attr source packetDropReasonIsRetryLimitReached(packetDropped)
attr title "packet drop: retry limit reached, packetBytes"
vector 118 NetworkA.sensor2.wlan[0].mac packetDropBackoffLimitReached:vector(packetBytes) ETV
attr interpolationmode none
attr recordingmode vector(packetBytes)
attr source packetDropReasonIsCongestion(packetDropped)
attr title "packet drop: backoff limit reached, packetBytes"
vector 119 NetworkA.sensor2.wlan[0].radio.energyConsumer powerConsumption:vector ETV
attr interpolationmode sample-hold
attr recordingmode vector
attr source powerConsumptionChanged
attr title "Power consumption"
attr unit W
vector 120 NetworkA.sensor2.wlan[0].radio.energyConsumer rxPowerConsumptionVector:vector ETV
attr interpolationmode sample-hold
attr recordingmode vector
attr source rxPowerConsumption
attr title "RX Power consumption over time"
attr unit W
vector 121 NetworkA.sensor2.wlan[0].radio.energyConsumer txPowerConsumptionVector:vector ETV
attr interpolationmode sample-hold
attr recordingmode vector
attr source txPowerConsumption
attr title "TX Power consumption over time"
attr unit W
vector 122 NetworkA.sensor2.wlan[0].radio.energyConsumer sleepTimeVector:vector ETV
attr interpolationmode sample-hold
attr recordingmode vector
attr source sleepTime
attr title "Total sleep time over time"
attr unit s
vector 123 NetworkA.sensor2.wlan[0].radio radioMode:vector ETV
attr interpolationmode sample-hold
attr recordingmode vector
attr source radioModeChanged
attr title "Radio mode"
vector 124 NetworkA.sensor2.wlan[0].radio receptionState:vector ETV
attr interpolationmode sample-hold
attr recordingmode vector
attr source receptionStateChanged
attr title "Radio reception state"
vector 125 NetworkA.sensor2.wlan[0].radio transmissionState:vector ETV
attr interpolationmode sample-hold
attr recordingmode vector
attr source transmissionStateChanged
attr title "Radio transmission state"
vector 126 NetworkA.sensor2.wlan[0] packetDropInterfaceDown:vector(packetBytes) ETV
attr interpolationmode none
attr recordingmode vector(packetBytes)
attr source packetDropReasonIsInterfaceDown(packetDropped)
attr title "packet drops: interface down, packetBytes"
vector 127 NetworkA.sensor2.wlan[0] packetDropNoCarrier:vector(packetBytes) ETV
attr interpolationmode none
attr recordingmode vector(packetBytes)
attr source packetDropReasonIsNoCarrier(packetDropped)
attr title "packet drops: no carrier, packetBytes"
vector 128 NetworkA.sensor2.ipv4.ip packetDropAddressResolutionFailed:vector(packetBytes) ETV
attr interpolationmode none
attr recordingmode vector(packetBytes)
attr source packetDropReasonIsAddressResolutionFailed(packetDropped)
attr title "packet drop: address resolution failed, packetBytes"
vector 129 NetworkA.sensor2.ipv4.ip packetDropHopLimitReached:vector(packetBytes) ETV
attr interpolationmode none
attr recordingmode vector(packetBytes)
attr source packetDropReasonIsHopLimitReached(packetDropped)
attr title "packet drop: hop limit reached, packetBytes"
vector 130 NetworkA.sensor2.ipv4.ip packetDropForwardingDisabled:vector(packetBytes) ETV
attr interpolationmode none
attr recordingmode vector(packetBytes)
attr source packetDropReasonIsForwardingDisabled(packetDropped)
attr title "packet drop: forwarding disabled, packetBytes"
vector 131 NetworkA.sensor2.ipv4.ip packetDropNoInterfaceFound:vector(packetBytes) ETV
attr interpolationmode none
attr recordingmode vector(packetBytes)
attr source packetDropReasonIsNoInterfaceFound(packetDropped)
attr title "packet drop: no interface found, packetBytes"
vector 132 NetworkA.sensor2.ipv4.ip packetDropNoRouteFound:vector(packetBytes) ETV
attr interpolationmode none
attr recordingmode vector(packetBytes)
attr source packetDropReasonIsNoRouteFound(packetDropped)
attr title "packet drop: no route found, packetBytes"
vector 133 NetworkA.sensor2.ipv4.ip packetDropUndefined:vector(packetBytes) ETV
attr interpolationmode none
attr recordingmode vector(packetBytes)
attr source packetDropReasonIsUndefined(packetDropped)
attr title "packet drop: undefined, packetBytes"
vector 134 NetworkA.sensor2.udp packetSent:vector(packetBytes) ETV
attr interpolationmode none
attr recordingmode vector(packetBytes)
attr source packetSent
attr title "packets sent, packetBytes"
vector 135 NetworkA.sensor2.udp packetReceived:vector(packetBytes) ETV
attr interpolationmode none
attr recordingmode vector(packetBytes)
attr source packetReceived
attr title "packets received, packetBytes"
vector 136 NetworkA.sensor2.udp passedUpPk:vector(count) ETV
attr interpolationmode none
attr recordingmode vector(count)
attr source packetSentToUpper
attr title "packets passed up, count"
vector 137 NetworkA.sensor2.udp droppedPkWrongPort:vector(count) ETV
attr interpolationmode none
attr recordingmode vector(count)
attr source packetDropReasonIsNoPortFound(packetDropped)
attr title "packets dropped (wrong port), count"
vector 138 NetworkA.sensor2.udp droppedPkBadChecksum:vector(count) ETV
attr interpolationmode none
attr recordingmode vector(count)
attr source packetDropReasonIsIncorrectlyReceived(packetDropped)
attr title "packets dropped (checksum error), count"
vector 139 NetworkA.sensor2.app[0] packetReceived:vector(packetBytes) ETV
attr interpolationmode none
attr recordingmode vector(packetBytes)
attr source packetReceived
attr title "packets received, packetBytes"
vector 140 NetworkA.sensor2.app[0] throughput:vector ETV
attr recordingmode vector
attr source throughput(packetReceived)
attr title throughput
attr unit bps
vector 141 NetworkA.sensor2.app[0] packetSent:vector(packetBytes) ETV
attr interpolationmode none
attr recordingmode vector(packetBytes)
attr source packetSent
attr title "packets sent, packetBytes"
vector 142 NetworkA.sensor2.app[0] rcvdPkLifetime:vector ETV
attr interpolationmode none
attr recordingmode vector
attr source dataAge(packetReceived)
attr title "received packet lifetime"
attr unit s
vector 143 NetworkA.sensor2.app[0] rcvdPkSeqNo:vector ETV
attr interpolationmode none
attr recordingmode vector
attr source appPkSeqNo(packetReceived)
attr title "received packet sequence number"
vector 144 NetworkA.sensor3.energyStorage powerConsumption:vector ETV
attr interpolationmode sample-hold
attr recordingmode vector
attr source powerConsumptionChanged
attr title "Power consumption"
attr unit W
vector 145 NetworkA.sensor3.energyStorage powerGeneration:vector ETV
attr interpolationmode sample-hold
attr recordingmode vector
attr source powerGenerationChanged
attr title "Power generation"
attr unit W
vector 146 NetworkA.sensor3.energyStorage residualEnergyCapacity:vector ETV
attr interpolationmode linear
attr recordingmode vector
attr source residualEnergyCapacityChanged
attr title "Residual energy capacity"
attr unit J
vector 147 NetworkA.sensor3.lo[0].lo rcvdPkFromHl:vector(packetBytes) ETV
attr interpolationmode none
attr recordingmode vector(packetBytes)
attr source packetReceivedFromUpper
attr title "packets received from higher layer, packetBytes"
vector 148 NetworkA.sensor3.lo[0].lo passedUpPk:vector(packetBytes) ETV
attr interpolationmode none
attr recordingmode vector(packetBytes)
attr source packetSentToUpper
attr title "packets passed to higher layer, packetBytes"
vector 149 NetworkA.sensor3.lo[0] packetDropInterfaceDown:vector(packetBytes) ETV
attr interpolationmode none
attr recordingmode vector(packetBytes)
attr source packetDropReasonIsInterfaceDown(packetDropped)
attr title "packet drops: interface down, packetBytes"
vector 150 NetworkA.sensor3.lo[0] packetDropNoCarrier:vector(packetBytes) ETV
attr interpolationmode none
attr recordingmode vector(packetBytes)
attr source packetDropReasonIsNoCarrier(packetDropped)
attr title "packet drops: no carrier, packetBytes"
vector 151 NetworkA.sensor3.wlan[0].queue queueLength:vector ETV
attr autoWarmupFilter false
attr interpolationmode sample-hold
attr recordingmode vector
attr source "warmup(atomic(constant0(packetPushEnded) + count(packetPushStarted) - count(packetPulled) - count(packetRemoved) - count(packetDropped)))"
attr title "queue length"
attr unit pk
vector 152 NetworkA.sensor3.wlan[0].queue queueBitLength:vector ETV
attr autoWarmupFilter false
attr interpolationmode sample-hold
attr recordingmode vector
attr source "warmup(atomic(constant0(packetPushEnded) + sum(packetLength(packetPushStarted)) - sum(packetLength(packetPulled)) - sum(packetLength(packetRemoved)) - sum(packetLength(packetDropped))))"
attr title "queue bit length"
attr unit b
vector 153 NetworkA.sensor3.wlan[0].queue queueingTime:vector ETV
attr interpolationmode none
attr recordingmode vector
attr source queueingTime(packetPulled)
attr title "queueing times"
attr unit s
vector 154 NetworkA.sensor3.wlan[0].queue incomingPacketLengths:vector ETV
attr interpolationmode none
attr recordingmode vector
attr source packetLength(packetPushStarted)
attr title "incoming packet lengths"
attr unit b
vector 155 NetworkA.sensor3.wlan[0].queue incomingDataRate:vector ETV
attr interpolationmode linear
attr recordingmode vector
attr source throughput(packetPushStarted)
attr title "incoming datarate"
attr unit bps
vector 156 NetworkA.sensor3.wlan[0].queue outgoingPacketLengths:vector ETV
attr interpolationmode none
attr recordingmode vector
attr source packetLength(packetPulled)
attr title "outgoing packet lengths"
attr unit b
vector 157 NetworkA.sensor3.wlan[0].queue outgoingDataRate:vector ETV
attr interpolationmode linear
attr recordingmode vector
attr source throughput(packetPulled)
attr title "outgoing datarate"
attr unit bps
vector 158 NetworkA.sensor3.wlan[0].queue droppedPacketLengthsQueueOverflow:vector ETV
attr interpolationmode none
attr recordingmode vector
attr source packetLength(packetDropReasonIsQueueOverflow(packetDropped))
attr title "dropped packet lengths: queue overflow"
attr unit b
vector 159 NetworkA.sensor3.wlan[0].queue flowQueueingTime:vector ETV
attr interpolationmode none
attr recordingmode vector
attr source queueingTime(demuxFlow(packetPulled))
attr title "flow queueing times"
attr unit s
vector 160 NetworkA.sensor3.wlan[0].queue flowIncomingDataRate:vector ETV
attr interpolationmode linear
attr recordingmode vector
attr source throughput(flowPacketLength(demuxFlow(packetPushStarted)))
attr title "flow specific incoming data rate"
attr unit bps
vector 161 NetworkA.sensor3.wlan[0].queue flowOutgoingDataRate:vector ETV
attr interpolationmode linear
attr recordingmode vector
attr source throughput(flowPacketLength(demuxFlow(packetPulled)))
attr title "flow specific outgoing data rate"
attr unit bps
vector 162 NetworkA.sensor3.wlan[0].mac packetDropNotAddressToUs:vector(packetBytes) ETV
attr interpolationmode none
attr recordingmode vector(packetBytes)
attr source packetDropReasonIsNotAddressedToUs(packetDropped)
attr title "packet drop: not addressed to us, packetBytes"
vector 163 NetworkA.sensor3.wlan[0].mac packetDropIncorrectlyReceived:vector(packetBytes) ETV
attr interpolationmode none
attr recordingmode vector(packetBytes)
attr source packetDropReasonIsIncorrectlyReceived(packetDropped)
attr title "packet drop: incorrectly received, packetBytes"
vector 164 NetworkA.sensor3.wlan[0].mac packetDropQueueOverflow:vector(packetBytes) ETV
attr interpolationmode none
attr recordingmode vector(packetBytes)
attr source packetDropReasonIsQueueOverflow(packetDropped)
attr title "packet drop: queue overflow, packetBytes"
vector 165 NetworkA.sensor3.wlan[0].mac packetDropRetryLimitReached:vector(packetBytes) ETV
attr interpolationmode none
attr recordingmode vector(packetBytes)
attr source packetDropReasonIsRetryLimitReached(packetDropped)
attr title "packet drop: retry limit reached, packetBytes"
vector 166 NetworkA.sensor3.wlan[0].mac packetDropBackoffLimitReached:vector(packetBytes) ETV
attr interpolationmode none
attr recordingmode vector(packetBytes)
attr source packetDropReasonIsCongestion(packetDropped)
attr title "packet drop: backoff limit reached, packetBytes"
vector 167 NetworkA.sensor3.wlan[0].radio.energyConsumer powerConsumption:vector ETV
attr interpolationmode sample-hold
attr recordingmode vector
attr source powerConsumptionChanged
attr title "Power consumption"
attr unit W
vector 168 NetworkA.sensor3.wlan[0].radio.energyConsumer rxPowerConsumptionVector:vector ETV
attr interpolationmode sample-hold
attr recordingmode vector
attr source rxPowerConsumption
attr title "RX Power consumption over time"
attr unit W
vector 169 NetworkA.sensor3.wlan[0].radio.energyConsumer txPowerConsumptionVector:vector ETV
attr interpolationmode sample-hold
attr recordingmode vector
attr source txPowerConsumption
attr title "TX Power consumption over time"
attr unit W
vector 170 NetworkA.sensor3.wlan[0].radio.energyConsumer sleepTimeVector:vector ETV
attr interpolationmode sample-hold
attr recordingmode vector
attr source sleepTime
attr title "Total sleep time over time"
attr unit s
vector 171 NetworkA.sensor3.wlan[0].radio radioMode:vector ETV
attr interpolationmode sample-hold
attr recordingmode vector
attr source radioModeChanged
attr title "Radio mode"
vector 172 NetworkA.sensor3.wlan[0].radio receptionState:vector ETV
attr interpolationmode sample-hold
attr recordingmode vector
attr source receptionStateChanged
attr title "Radio reception state"
vector 173 NetworkA.sensor3.wlan[0].radio transmissionState:vector ETV
attr interpolationmode sample-hold
attr recordingmode vector
attr source transmissionStateChanged
attr title "Radio transmission state"
vector 174 NetworkA.sensor3.wlan[0] packetDropInterfaceDown:vector(packetBytes) ETV
attr interpolationmode none
attr recordingmode vector(packetBytes)
attr source packetDropReasonIsInterfaceDown(packetDropped)
attr title "packet drops: interface down, packetBytes"
vector 175 NetworkA.sensor3.wlan[0] packetDropNoCarrier:vector(packetBytes) ETV
attr interpolationmode none
attr recordingmode vector(packetBytes)
attr source packetDropReasonIsNoCarrier(packetDropped)
attr title "packet drops: no carrier, packetBytes"
vector 176 NetworkA.sensor3.ipv4.ip packetDropAddressResolutionFailed:vector(packetBytes) ETV
attr interpolationmode none
attr recordingmode vector(packetBytes)
attr source packetDropReasonIsAddressResolutionFailed(packetDropped)
attr title "packet drop: address resolution failed, packetBytes"
vector 177 NetworkA.sensor3.ipv4.ip packetDropHopLimitReached:vector(packetBytes) ETV
attr interpolationmode none
attr recordingmode vector(packetBytes)
attr source packetDropReasonIsHopLimitReached(packetDropped)
attr title "packet drop: hop limit reached, packetBytes"
vector 178 NetworkA.sensor3.ipv4.ip packetDropForwardingDisabled:vector(packetBytes) ETV
attr interpolationmode none
attr recordingmode vector(packetBytes)
attr source packetDropReasonIsForwardingDisabled(packetDropped)
attr title "packet drop: forwarding disabled, packetBytes"
vector 179 NetworkA.sensor3.ipv4.ip packetDropNoInterfaceFound:vector(packetBytes) ETV
attr interpolationmode none
attr recordingmode vector(packetBytes)
attr source packetDropReasonIsNoInterfaceFound(packetDropped)
attr title "packet drop: no interface found, packetBytes"
vector 180 NetworkA.sensor3.ipv4.ip packetDropNoRouteFound:vector(packetBytes) ETV
attr interpolationmode none
attr recordingmode vector(packetBytes)
attr source packetDropReasonIsNoRouteFound(packetDropped)
attr title "packet drop: no route found, packetBytes"
vector 181 NetworkA.sensor3.ipv4.ip packetDropUndefined:vector(packetBytes) ETV
attr interpolationmode none
attr recordingmode vector(packetBytes)
attr source packetDropReasonIsUndefined(packetDropped)
attr title "packet drop: undefined, packetBytes"
vector 182 NetworkA.sensor3.udp packetSent:vector(packetBytes) ETV
attr interpolationmode none
attr recordingmode vector(packetBytes)
attr source packetSent
attr title "packets sent, packetBytes"
vector 183 NetworkA.sensor3.udp packetReceived:vector(packetBytes) ETV
attr interpolationmode none
attr recordingmode vector(packetBytes)
attr source packetReceived
attr title "packets received, packetBytes"
vector 184 NetworkA.sensor3.udp passedUpPk:vector(count) ETV
attr interpolationmode none
attr recordingmode vector(count)
attr source packetSentToUpper
attr title "packets passed up, count"
vector 185 NetworkA.sensor3.udp droppedPkWrongPort:vector(count) ETV
attr interpolationmode none
attr recordingmode vector(count)
attr source packetDropReasonIsNoPortFound(packetDropped)
attr title "packets dropped (wrong port), count"
vector 186 NetworkA.sensor3.udp droppedPkBadChecksum:vector(count) ETV
attr interpolationmode none
attr recordingmode vector(count)
attr source packetDropReasonIsIncorrectlyReceived(packetDropped)
attr title "packets dropped (checksum error), count"
vector 187 NetworkA.sensor3.app[0] packetReceived:vector(packetBytes) ETV
attr interpolationmode none
attr recordingmode vector(packetBytes)
attr source packetReceived
attr title "packets received, packetBytes"
vector 188 NetworkA.sensor3.app[0] throughput:vector ETV
attr recordingmode vector
attr source throughput(packetReceived)
attr title throughput
attr unit bps
vector 189 NetworkA.sensor3.app[0] packetSent:vector(packetBytes) ETV
attr interpolationmode none
attr recordingmode vector(packetBytes)
attr source packetSent
attr title "packets sent, packetBytes"
vector 190 NetworkA.sensor3.app[0] rcvdPkLifetime:vector ETV
attr interpolationmode none
attr recordingmode vector
attr source dataAge(packetReceived)
attr title "received packet lifetime"
attr unit s
vector 191 NetworkA.sensor3.app[0] rcvdPkSeqNo:vector ETV
attr interpolationmode none
attr recordingmode vector
attr source appPkSeqNo(packetReceived)
attr title "received packet sequence number"
vector 192 NetworkA.gateway.energyStorage powerConsumption:vector ETV
attr interpolationmode sample-hold
attr recordingmode vector
attr source powerConsumptionChanged
attr title "Power consumption"
attr unit W
vector 193 NetworkA.gateway.energyStorage powerGeneration:vector ETV
attr interpolationmode sample-hold
attr recordingmode vector
attr source powerGenerationChanged
attr title "Power generation"
attr unit W
vector 194 NetworkA.gateway.energyStorage residualEnergyCapacity:vector ETV
attr interpolationmode linear
attr recordingmode vector
attr source residualEnergyCapacityChanged
attr title "Residual energy capacity"
attr unit J
vector 195 NetworkA.gateway.ethernet encapPk:vector(packetBytes) ETV
attr interpolationmode none
attr recordingmode vector(packetBytes)
attr source encapPk
attr title "packets encapsulated, packetBytes"
vector 196 NetworkA.gateway.ethernet decapPk:vector(packetBytes) ETV
attr interpolationmode none
attr recordingmode vector(packetBytes)
attr source decapPk
attr title "packets decapsulated, packetBytes"
vector 197 NetworkA.gateway.ethernet pauseSent:vector ETV
attr recordingmode vector
attr title "pause sent"
vector 198 NetworkA.gateway.lo[0].lo rcvdPkFromHl:vector(packetBytes) ETV
attr interpolationmode none
attr recordingmode vector(packetBytes)
attr source packetReceivedFromUpper
attr title "packets received from higher layer, packetBytes"
vector 199 NetworkA.gateway.lo[0].lo passedUpPk:vector(packetBytes) ETV
attr interpolationmode none
attr recordingmode vector(packetBytes)
attr source packetSentToUpper
attr title "packets passed to higher layer, packetBytes"
vector 200 NetworkA.gateway.lo[0] packetDropInterfaceDown:vector(packetBytes) ETV
attr interpolationmode none
attr recordingmode vector(packetBytes)
attr source packetDropReasonIsInterfaceDown(packetDropped)
attr title "packet drops: interface down, packetBytes"
vector 201 NetworkA.gateway.lo[0] packetDropNoCarrier:vector(packetBytes) ETV
attr interpolationmode none
attr recordingmode vector(packetBytes)
attr source packetDropReasonIsNoCarrier(packetDropped)
attr title "packet drops: no carrier, packetBytes"
vector 202 NetworkA.gateway.wlan[0].queue queueLength:vector ETV
attr autoWarmupFilter false
attr interpolationmode sample-hold
attr recordingmode vector
attr source "warmup(atomic(constant0(packetPushEnded) + count(packetPushStarted) - count(packetPulled) - count(packetRemoved) - count(packetDropped)))"
attr title "queue length"
attr unit pk
vector 203 NetworkA.gateway.wlan[0].queue queueBitLength:vector ETV
attr autoWarmupFilter false
attr interpolationmode sample-hold
attr recordingmode vector
attr source "warmup(atomic(constant0(packetPushEnded) + sum(packetLength(packetPushStarted)) - sum(packetLength(packetPulled)) - sum(packetLength(packetRemoved)) - sum(packetLength(packetDropped))))"
attr title "queue bit length"
attr unit b
vector 204 NetworkA.gateway.wlan[0].queue queueingTime:vector ETV
attr interpolationmode none
attr recordingmode vector
attr source queueingTime(packetPulled)
attr title "queueing times"
attr unit s
vector 205 NetworkA.gateway.wlan[0].queue incomingPacketLengths:vector ETV
attr interpolationmode none
attr recordingmode vector
attr source packetLength(packetPushStarted)
attr title "incoming packet lengths"
attr unit b
vector 206 NetworkA.gateway.wlan[0].queue incomingDataRate:vector ETV
attr interpolationmode linear
attr recordingmode vector
attr source throughput(packetPushStarted)
attr title "incoming datarate"
attr unit bps
vector 207 NetworkA.gateway.wlan[0].queue outgoingPacketLengths:vector ETV
attr interpolationmode none
attr recordingmode vector
attr source packetLength(packetPulled)
attr title "outgoing packet lengths"
attr unit b
vector 208 NetworkA.gateway.wlan[0].queue outgoingDataRate:vector ETV
attr interpolationmode linear
attr recordingmode vector
attr source throughput(packetPulled)
attr title "outgoing datarate"
attr unit bps
vector 209 NetworkA.gateway.wlan[0].queue droppedPacketLengthsQueueOverflow:vector ETV
attr interpolationmode none
attr recordingmode vector
attr source packetLength(packetDropReasonIsQueueOverflow(packetDropped))
attr title "dropped packet lengths: queue overflow"
attr unit b
vector 210 NetworkA.gateway.wlan[0].queue flowQueueingTime:vector ETV
attr interpolationmode none
attr recordingmode vector
attr source queueingTime(demuxFlow(packetPulled))
attr title "flow queueing times"
attr unit s
vector 211 NetworkA.gateway.wlan[0].queue flowIncomingDataRate:vector ETV
attr interpolationmode linear
attr recordingmode vector
attr source throughput(flowPacketLength(demuxFlow(packetPushStarted)))
attr title "flow specific incoming data rate"
attr unit bps
vector 212 NetworkA.gateway.wlan[0].queue flowOutgoingDataRate:vector ETV
attr interpolationmode linear
attr recordingmode vector
attr source throughput(flowPacketLength(demuxFlow(packetPulled)))
attr title "flow specific outgoing data rate"
attr unit bps
vector 213 NetworkA.gateway.wlan[0].mac packetDropNotAddressToUs:vector(packetBytes) ETV
attr interpolationmode none
attr recordingmode vector(packetBytes)
attr source packetDropReasonIsNotAddressedToUs(packetDropped)
attr title "packet drop: not addressed to us, packetBytes"
vector 214 NetworkA.gateway.wlan[0].mac packetDropIncorrectlyReceived:vector(packetBytes) ETV
attr interpolationmode none
attr recordingmode vector(packetBytes)
attr source packetDropReasonIsIncorrectlyReceived(packetDropped)
attr title "packet drop: incorrectly received, packetBytes"
vector 215 NetworkA.gateway.wlan[0].mac packetDropQueueOverflow:vector(packetBytes) ETV
attr interpolationmode none
attr recordingmode vector(packetBytes)
attr source packetDropReasonIsQueueOverflow(packetDropped)
attr title "packet drop: queue overflow, packetBytes"
vector 216 NetworkA.gateway.wlan[0].mac packetDropRetryLimitReached:vector(packetBytes) ETV
attr interpolationmode none
attr recordingmode vector(packetBytes)
attr source packetDropReasonIsRetryLimitReached(packetDropped)
attr title "packet drop: retry limit reached, packetBytes"
vector 217 NetworkA.gateway.wlan[0].mac packetDropBackoffLimitReached:vector(packetBytes) ETV
attr interpolationmode none
attr recordingmode vector(packetBytes)
attr source packetDropReasonIsCongestion(packetDropped)
attr title "packet drop: backoff limit reached, packetBytes"
vector 218 NetworkA.gateway.wlan[0].radio.energyConsumer powerConsumption:vector ETV
attr interpolationmode sample-hold
attr recordingmode vector
attr source powerConsumptionChanged
attr title "Power consumption"
attr unit W
vector 219 NetworkA.gateway.wlan[0].radio.energyConsumer rxPowerConsumptionVector:vector ETV
attr interpolationmode sample-hold
attr recordingmode vector
attr source rxPowerConsumption
attr title "RX Power consumption over time"
attr unit W
vector 220 NetworkA.gateway.wlan[0].radio.energyConsumer txPowerConsumptionVector:vector ETV
attr interpolationmode sample-hold
attr recordingmode vector
attr source txPowerConsumption
attr title "TX Power consumption over time"
attr unit W
vector 221 NetworkA.gateway.wlan[0].radio.energyConsumer sleepTimeVector:vector ETV
attr interpolationmode sample-hold
attr recordingmode vector
attr source sleepTime
attr title "Total sleep time over time"
attr unit s
vector 222 NetworkA.gateway.wlan[0].radio radioMode:vector ETV
attr interpolationmode sample-hold
attr recordingmode vector
attr source radioModeChanged
attr title "Radio mode"
vector 223 NetworkA.gateway.wlan[0].radio receptionState:vector ETV
attr interpolationmode sample-hold
attr recordingmode vector
attr source receptionStateChanged
attr title "Radio reception state"
vector 224 NetworkA.gateway.wlan[0].radio transmissionState:vector ETV
attr interpolationmode sample-hold
attr recordingmode vector
attr source transmissionStateChanged
attr title "Radio transmission state"
vector 225 NetworkA.gateway.wlan[0] packetDropInterfaceDown:vector(packetBytes) ETV
attr interpolationmode none
attr recordingmode vector(packetBytes)
attr source packetDropReasonIsInterfaceDown(packetDropped)
attr title "packet drops: interface down, packetBytes"
vector 226 NetworkA.gateway.wlan[0] packetDropNoCarrier:vector(packetBytes) ETV
attr interpolationmode none
attr recordingmode vector(packetBytes)
attr source packetDropReasonIsNoCarrier(packetDropped)
attr title "packet drops: no carrier, packetBytes"
vector 227 NetworkA.gateway.eth[0].queue queueLength:vector ETV
attr autoWarmupFilter false
attr interpolationmode sample-hold
attr recordingmode vector
attr source "warmup(atomic(constant0(packetPushEnded) + count(packetPushStarted) - count(packetPulled) - count(packetRemoved) - count(packetDropped)))"
attr title "queue length"
attr unit pk
vector 228 NetworkA.gateway.eth[0].queue queueBitLength:vector ETV
attr autoWarmupFilter false
attr interpolationmode sample-hold
attr recordingmode vector
attr source "warmup(atomic(constant0(packetPushEnded) + sum(packetLength(packetPushStarted)) - sum(packetLength(packetPulled)) - sum(packetLength(packetRemoved)) - sum(packetLength(packetDropped))))"
attr title "queue bit length"
attr unit b
vector 229 NetworkA.gateway.eth[0].queue queueingTime:vector ETV
attr interpolationmode none
attr recordingmode vector
attr source queueingTime(packetPulled)
attr title "queueing times"
attr unit s
vector 230 NetworkA.gateway.eth[0].queue incomingPacketLengths:vector ETV
attr interpolationmode none
attr recordingmode vector
attr source packetLength(packetPushStarted)
attr title "incoming packet lengths"
attr unit b
vector 231 NetworkA.gateway.eth[0].queue incomingDataRate:vector ETV
attr interpolationmode linear
attr recordingmode vector
attr source throughput(packetPushStarted)
attr title "incoming datarate"
attr unit bps
vector 232 NetworkA.gateway.eth[0].queue outgoingPacketLengths:vector ETV
attr interpolationmode none
attr recordingmode vector
attr source packetLength(packetPulled)
attr title "outgoing packet lengths"
attr unit b
vector 233 NetworkA.gateway.eth[0].queue outgoingDataRate:vector ETV
attr interpolationmode linear
attr recordingmode vector
attr source throughput(packetPulled)
attr title "outgoing datarate"
attr unit bps
vector 234 NetworkA.gateway.eth[0].queue droppedPacketLengthsQueueOverflow:vector ETV
attr interpolationmode none
attr recordingmode vector
attr source packetLength(packetDropReasonIsQueueOverflow(packetDropped))
attr title "dropped packet lengths: queue overflow"
attr unit b
vector 235 NetworkA.gateway.eth[0].queue flowQueueingTime:vector ETV
attr interpolationmode none
attr recordingmode vector
attr source queueingTime(demuxFlow(packetPulled))
attr title "flow queueing times"
attr unit s
vector 236 NetworkA.gateway.eth[0].queue flowIncomingDataRate:vector ETV
attr interpolationmode linear
attr recordingmode vector
attr source throughput(flowPacketLength(demuxFlow(packetPushStarted)))
attr title "flow specific incoming data rate"
attr unit bps
vector 237 NetworkA.gateway.eth[0].queue flowOutgoingDataRate:vector ETV
attr interpolationmode linear
attr recordingmode vector
attr source throughput(flowPacketLength(demuxFlow(packetPulled)))
attr title "flow specific outgoing data rate"
attr unit bps
vector 238 NetworkA.gateway.eth[0].mac txPk:vector(packetBytes) ETV
attr interpolationmode none
attr recordingmode vector(packetBytes)
attr source packetSentToLower
attr title "packets transmitted, packetBytes"
vector 239 NetworkA.gateway.eth[0].mac rxPkOk:vector(packetBytes) ETV
attr interpolationmode none
attr recordingmode vector(packetBytes)
attr source rxPkOk
attr title "packets received OK, packetBytes"
vector 240 NetworkA.gateway.eth[0].mac passedUpPk:vector(packetBytes) ETV
attr interpolationmode none
attr recordingmode vector(packetBytes)
attr source packetSentToUpper
attr title "packets passed to higher layer, packetBytes"
vector 241 NetworkA.gateway.eth[0].mac txPausePkUnits:vector ETV
attr interpolationmode none
attr recordingmode vector
attr title "pause units sent"
vector 242 NetworkA.gateway.eth[0].mac rxPausePkUnits:vector ETV
attr interpolationmode none
attr recordingmode vector
attr title "pause units received"
vector 243 NetworkA.gateway.eth[0].mac packetReceivedFromUpper:vector(packetBytes) ETV
attr interpolationmode none
attr recordingmode vector(packetBytes)
attr source packetReceivedFromUpper
attr title "packet bytes from higher layer, packetBytes"
vector 244 NetworkA.gateway.eth[0].mac packetDropIncorrectlyReceived:vector(packetBytes) ETV
attr interpolationmode none
attr recordingmode vector(packetBytes)
attr source packetDropReasonIsIncorrectlyReceived(packetDropped)
attr title "packet drop: incorrectly received, packetBytes"
vector 245 NetworkA.gateway.eth[0].mac packetDropInterfaceDown:vector(packetBytes) ETV
attr interpolationmode none
attr recordingmode vector(packetBytes)
attr source packetDropReasonIsInterfaceDown(packetDropped)
attr title "packet drop: interface down, packetBytes"
vector 246 NetworkA.gateway.eth[0].mac packetDropNotAddressedToUs:vector(packetBytes) ETV
attr interpolationmode none
attr recordingmode vector(packetBytes)
attr source packetDropReasonIsNotAddressedToUs(packetDropped)
attr title "packet drop: not addressed to us, packetBytes"
vector 247 NetworkA.gateway.eth[0] packetDropInterfaceDown:vector(packetBytes) ETV
attr interpolationmode none
attr recordingmode vector(packetBytes)
attr source packetDropReasonIsInterfaceDown(packetDropped)
attr title "packet drops: interface down, packetBytes"
vector 248 NetworkA.gateway.eth[0] packetDropNoCarrier:vector(packetBytes) ETV
attr interpolationmode none
attr recordingmode vector(packetBytes)
attr source packetDropReasonIsNoCarrier(packetDropped)
attr title "packet drops: no carrier, packetBytes"
vector 249 NetworkA.gateway.ipv4.ip packetDropAddressResolutionFailed:vector(packetBytes) ETV
attr interpolationmode none
attr recordingmode vector(packetBytes)
attr source packetDropReasonIsAddressResolutionFailed(packetDropped)
attr title "packet drop: address resolution failed, packetBytes"
vector 250 NetworkA.gateway.ipv4.ip packetDropHopLimitReached:vector(packetBytes) ETV
attr interpolationmode none
attr recordingmode vector(packetBytes)
attr source packetDropReasonIsHopLimitReached(packetDropped)
attr title "packet drop: hop limit reached, packetBytes"
vector 251 NetworkA.gateway.ipv4.ip packetDropForwardingDisabled:vector(packetBytes) ETV
attr interpolationmode none
attr recordingmode vector(packetBytes)
attr source packetDropReasonIsForwardingDisabled(packetDropped)
attr title "packet drop: forwarding disabled, packetBytes"
vector 252 NetworkA.gateway.ipv4.ip packetDropNoInterfaceFound:vector(packetBytes) ETV
attr interpolationmode none
attr recordingmode vector(packetBytes)
attr source packetDropReasonIsNoInterfaceFound(packetDropped)
attr title "packet drop: no interface found, packetBytes"
vector 253 NetworkA.gateway.ipv4.ip packetDropNoRouteFound:vector(packetBytes) ETV
attr interpolationmode none
attr recordingmode vector(packetBytes)
attr source packetDropReasonIsNoRouteFound(packetDropped)
attr title "packet drop: no route found, packetBytes"
vector 254 NetworkA.gateway.ipv4.ip packetDropUndefined:vector(packetBytes) ETV
attr interpolationmode none
attr recordingmode vector(packetBytes)
attr source packetDropReasonIsUndefined(packetDropped)
attr title "packet drop: undefined, packetBytes"
vector 255 NetworkA.gateway.udp packetSent:vector(packetBytes) ETV
attr interpolationmode none
attr recordingmode vector(packetBytes)
attr source packetSent
attr title "packets sent, packetBytes"
vector 256 NetworkA.gateway.udp packetReceived:vector(packetBytes) ETV
attr interpolationmode none
attr recordingmode vector(packetBytes)
attr source packetReceived
attr title "packets received, packetBytes"
vector 257 NetworkA.gateway.udp passedUpPk:vector(count) ETV
attr interpolationmode none
attr recordingmode vector(count)
attr source packetSentToUpper
attr title "packets passed up, count"
vector 258 NetworkA.gateway.udp droppedPkWrongPort:vector(count) ETV
attr interpolationmode none
attr recordingmode vector(count)
attr source packetDropReasonIsNoPortFound(packetDropped)
attr title "packets dropped (wrong port), count"
vector 259 NetworkA.gateway.udp droppedPkBadChecksum:vector(count) ETV
attr interpolationmode none
attr recordingmode vector(count)
attr source packetDropReasonIsIncorrectlyReceived(packetDropped)
attr title "packets dropped (checksum error), count"
vector 260 NetworkA.gateway.app[0] packetReceived:vector(packetBytes) ETV
attr interpolationmode none
attr recordingmode vector(packetBytes)
attr source packetReceived
attr title "packets received, packetBytes"
vector 261 NetworkA.gateway.app[0] throughput:vector ETV
attr recordingmode vector
attr source throughput(packetReceived)
attr title throughput
attr unit bps
vector 262 NetworkA.gateway.app[0] endToEndDelay:vector ETV
attr interpolationmode none
attr recordingmode vector
attr source dataAge(packetReceived)
attr title "end-to-end delay"
attr unit s
vector 263 NetworkA.gateway.app[0] rcvdPkSeqNo:vector ETV
attr interpolationmode none
attr recordingmode vector
attr source appPkSeqNo(packetReceived)
attr title "received packet sequence number"
vector 264 NetworkA.server.ethernet encapPk:vector(packetBytes) ETV
attr interpolationmode none
attr recordingmode vector(packetBytes)
attr source encapPk
attr title "packets encapsulated, packetBytes"
vector 265 NetworkA.server.ethernet decapPk:vector(packetBytes) ETV
attr interpolationmode none
attr recordingmode vector(packetBytes)
attr source decapPk
attr title "packets decapsulated, packetBytes"
vector 266 NetworkA.server.ethernet pauseSent:vector ETV
attr recordingmode vector
attr title "pause sent"
vector 267 NetworkA.server.lo[0].lo rcvdPkFromHl:vector(packetBytes) ETV
attr interpolationmode none
attr recordingmode vector(packetBytes)
attr source packetReceivedFromUpper
attr title "packets received from higher layer, packetBytes"
vector 268 NetworkA.server.lo[0].lo passedUpPk:vector(packetBytes) ETV
attr interpolationmode none
attr recordingmode vector(packetBytes)
attr source packetSentToUpper
attr title "packets passed to higher layer, packetBytes"
vector 269 NetworkA.server.lo[0] packetDropInterfaceDown:vector(packetBytes) ETV
attr interpolationmode none
attr recordingmode vector(packetBytes)
attr source packetDropReasonIsInterfaceDown(packetDropped)
attr title "packet drops: interface down, packetBytes"
vector 270 NetworkA.server.lo[0] packetDropNoCarrier:vector(packetBytes) ETV
attr interpolationmode none
attr recordingmode vector(packetBytes)
attr source packetDropReasonIsNoCarrier(packetDropped)
attr title "packet drops: no carrier, packetBytes"
vector 271 NetworkA.server.eth[0].queue queueLength:vector ETV
attr autoWarmupFilter false
attr interpolationmode sample-hold
attr recordingmode vector
attr source "warmup(atomic(constant0(packetPushEnded) + count(packetPushStarted) - count(packetPulled) - count(packetRemoved) - count(packetDropped)))"
attr title "queue length"
attr unit pk
vector 272 NetworkA.server.eth[0].queue queueBitLength:vector ETV
attr autoWarmupFilter false
attr interpolationmode sample-hold
attr recordingmode vector
attr source "warmup(atomic(constant0(packetPushEnded) + sum(packetLength(packetPushStarted)) - sum(packetLength(packetPulled)) - sum(packetLength(packetRemoved)) - sum(packetLength(packetDropped))))"
attr title "queue bit length"
attr unit b
vector 273 NetworkA.server.eth[0].queue queueingTime:vector ETV
attr interpolationmode none
attr recordingmode vector
attr source queueingTime(packetPulled)
attr title "queueing times"
attr unit s
vector 274 NetworkA.server.eth[0].queue incomingPacketLengths:vector ETV
attr interpolationmode none
attr recordingmode vector
attr source packetLength(packetPushStarted)
attr title "incoming packet lengths"
attr unit b
vector 275 NetworkA.server.eth[0].queue incomingDataRate:vector ETV
attr interpolationmode linear
attr recordingmode vector
attr source throughput(packetPushStarted)
attr title "incoming datarate"
attr unit bps
vector 276 NetworkA.server.eth[0].queue outgoingPacketLengths:vector ETV
attr interpolationmode none
attr recordingmode vector
attr source packetLength(packetPulled)
attr title "outgoing packet lengths"
attr unit b
vector 277 NetworkA.server.eth[0].queue outgoingDataRate:vector ETV
attr interpolationmode linear
attr recordingmode vector
attr source throughput(packetPulled)
attr title "outgoing datarate"
attr unit bps
vector 278 NetworkA.server.eth[0].queue droppedPacketLengthsQueueOverflow:vector ETV
attr interpolationmode none
attr recordingmode vector
attr source packetLength(packetDropReasonIsQueueOverflow(packetDropped))
attr title "dropped packet lengths: queue overflow"
attr unit b
vector 279 NetworkA.server.eth[0].queue flowQueueingTime:vector ETV
attr interpolationmode none
attr recordingmode vector
attr source queueingTime(demuxFlow(packetPulled))
attr title "flow queueing times"
attr unit s
vector 280 NetworkA.server.eth[0].queue flowIncomingDataRate:vector ETV
attr interpolationmode linear
attr recordingmode vector
attr source throughput(flowPacketLength(demuxFlow(packetPushStarted)))
attr title "flow specific incoming data rate"
attr unit bps
vector 281 NetworkA.server.eth[0].queue flowOutgoingDataRate:vector ETV
attr interpolationmode linear
attr recordingmode vector
attr source throughput(flowPacketLength(demuxFlow(packetPulled)))
attr title "flow specific outgoing data rate"
attr unit bps
vector 282 NetworkA.server.eth[0].mac txPk:vector(packetBytes) ETV
attr interpolationmode none
attr recordingmode vector(packetBytes)
attr source packetSentToLower
attr title "packets transmitted, packetBytes"
vector 283 NetworkA.server.eth[0].mac rxPkOk:vector(packetBytes) ETV
attr interpolationmode none
attr recordingmode vector(packetBytes)
attr source rxPkOk
attr title "packets received OK, packetBytes"
vector 284 NetworkA.server.eth[0].mac passedUpPk:vector(packetBytes) ETV
attr interpolationmode none
attr recordingmode vector(packetBytes)
attr source packetSentToUpper
attr title "packets passed to higher layer, packetBytes"
vector 285 NetworkA.server.eth[0].mac txPausePkUnits:vector ETV
attr interpolationmode none
attr recordingmode vector
attr title "pause units sent"
vector 286 NetworkA.server.eth[0].mac rxPausePkUnits:vector ETV
attr interpolationmode none
attr recordingmode vector
attr title "pause units received"
vector 287 NetworkA.server.eth[0].mac packetReceivedFromUpper:vector(packetBytes) ETV
attr interpolationmode none
attr recordingmode vector(packetBytes)
attr source packetReceivedFromUpper
attr title "packet bytes from higher layer, packetBytes"
vector 288 NetworkA.server.eth[0].mac packetDropIncorrectlyReceived:vector(packetBytes) ETV
attr interpolationmode none
attr recordingmode vector(packetBytes)
attr source packetDropReasonIsIncorrectlyReceived(packetDropped)
attr title "packet drop: incorrectly received, packetBytes"
vector 289 NetworkA.server.eth[0].mac packetDropInterfaceDown:vector(packetBytes) ETV
attr interpolationmode none
attr recordingmode vector(packetBytes)
attr source packetDropReasonIsInterfaceDown(packetDropped)
attr title "packet drop: interface down, packetBytes"
vector 290 NetworkA.server.eth[0].mac packetDropNotAddressedToUs:vector(packetBytes) ETV
attr interpolationmode none
attr recordingmode vector(packetBytes)
attr source packetDropReasonIsNotAddressedToUs(packetDropped)
attr title "packet drop: not addressed to us, packetBytes"
vector 291 NetworkA.server.eth[0] packetDropInterfaceDown:vector(packetBytes) ETV
attr interpolationmode none
attr recordingmode vector(packetBytes)
attr source packetDropReasonIsInterfaceDown(packetDropped)
attr title "packet drops: interface down, packetBytes"
vector 292 NetworkA.server.eth[0] packetDropNoCarrier:vector(packetBytes) ETV
attr interpolationmode none
attr recordingmode vector(packetBytes)
attr source packetDropReasonIsNoCarrier(packetDropped)
attr title "packet drops: no carrier, packetBytes"
vector 293 NetworkA.server.ipv4.ip packetDropAddressResolutionFailed:vector(packetBytes) ETV
attr interpolationmode none
attr recordingmode vector(packetBytes)
attr source packetDropReasonIsAddressResolutionFailed(packetDropped)
attr title "packet drop: address resolution failed, packetBytes"
vector 294 NetworkA.server.ipv4.ip packetDropHopLimitReached:vector(packetBytes) ETV
attr interpolationmode none
attr recordingmode vector(packetBytes)
attr source packetDropReasonIsHopLimitReached(packetDropped)
attr title "packet drop: hop limit reached, packetBytes"
vector 295 NetworkA.server.ipv4.ip packetDropForwardingDisabled:vector(packetBytes) ETV
attr interpolationmode none
attr recordingmode vector(packetBytes)
attr source packetDropReasonIsForwardingDisabled(packetDropped)
attr title "packet drop: forwarding disabled, packetBytes"
vector 296 NetworkA.server.ipv4.ip packetDropNoInterfaceFound:vector(packetBytes) ETV
attr interpolationmode none
attr recordingmode vector(packetBytes)
attr source packetDropReasonIsNoInterfaceFound(packetDropped)
attr title "packet drop: no interface found, packetBytes"
vector 297 NetworkA.server.ipv4.ip packetDropNoRouteFound:vector(packetBytes) ETV
attr interpolationmode none
attr recordingmode vector(packetBytes)
attr source packetDropReasonIsNoRouteFound(packetDropped)
attr title "packet drop: no route found, packetBytes"
vector 298 NetworkA.server.ipv4.ip packetDropUndefined:vector(packetBytes) ETV
attr interpolationmode none
attr recordingmode vector(packetBytes)
attr source packetDropReasonIsUndefined(packetDropped)
attr title "packet drop: undefined, packetBytes"
vector 299 NetworkA.server.udp packetSent:vector(packetBytes) ETV
attr interpolationmode none
attr recordingmode vector(packetBytes)
attr source packetSent
attr title "packets sent, packetBytes"
vector 300 NetworkA.server.udp packetReceived:vector(packetBytes) ETV
attr interpolationmode none
attr recordingmode vector(packetBytes)
attr source packetReceived
attr title "packets received, packetBytes"
vector 301 NetworkA.server.udp passedUpPk:vector(count) ETV
attr interpolationmode none
attr recordingmode vector(count)
attr source packetSentToUpper
attr title "packets passed up, count"
vector 302 NetworkA.server.udp droppedPkWrongPort:vector(count) ETV
attr interpolationmode none
attr recordingmode vector(count)
attr source packetDropReasonIsNoPortFound(packetDropped)
attr title "packets dropped (wrong port), count"
vector 303 NetworkA.server.udp droppedPkBadChecksum:vector(count) ETV
attr interpolationmode none
attr recordingmode vector(count)
attr source packetDropReasonIsIncorrectlyReceived(packetDropped)
attr title "packets dropped (checksum error), count"
vector 304 NetworkA.server.app[0] packetReceived:vector(packetBytes) ETV
attr interpolationmode none
attr recordingmode vector(packetBytes)
attr source packetReceived
attr title "packets received, packetBytes"
vector 305 NetworkA.server.app[0] throughput:vector ETV
attr recordingmode vector
attr source throughput(packetReceived)
attr title throughput
attr unit bps
vector 306 NetworkA.server.app[0] endToEndDelay:vector ETV
attr interpolationmode none
attr recordingmode vector
attr source dataAge(packetReceived)
attr title "end-to-end delay"
attr unit s
vector 307 NetworkA.server.app[0] rcvdPkSeqNo:vector ETV
attr interpolationmode none
attr recordingmode vector
attr source appPkSeqNo(packetReceived)
attr title "received packet sequence number"
vector 308 NetworkA.maliciousNode.lo[0].lo rcvdPkFromHl:vector(packetBytes) ETV
attr interpolationmode none
attr recordingmode vector(packetBytes)
attr source packetReceivedFromUpper
attr title "packets received from higher layer, packetBytes"
vector 309 NetworkA.maliciousNode.lo[0].lo passedUpPk:vector(packetBytes) ETV
attr interpolationmode none
attr recordingmode vector(packetBytes)
attr source packetSentToUpper
attr title "packets passed to higher layer, packetBytes"
vector 310 NetworkA.maliciousNode.lo[0] packetDropInterfaceDown:vector(packetBytes) ETV
attr interpolationmode none
attr recordingmode vector(packetBytes)
attr source packetDropReasonIsInterfaceDown(packetDropped)
attr title "packet drops: interface down, packetBytes"
vector 311 NetworkA.maliciousNode.lo[0] packetDropNoCarrier:vector(packetBytes) ETV
attr interpolationmode none
attr recordingmode vector(packetBytes)
attr source packetDropReasonIsNoCarrier(packetDropped)
attr title "packet drops: no carrier, packetBytes"
vector 312 NetworkA.maliciousNode.wlan[0].queue queueLength:vector ETV
attr autoWarmupFilter false
attr interpolationmode sample-hold
attr recordingmode vector
attr source "warmup(atomic(constant0(packetPushEnded) + count(packetPushStarted) - count(packetPulled) - count(packetRemoved) - count(packetDropped)))"
attr title "queue length"
attr unit pk
vector 313 NetworkA.maliciousNode.wlan[0].queue queueBitLength:vector ETV
attr autoWarmupFilter false
attr interpolationmode sample-hold
attr recordingmode vector
attr source "warmup(atomic(constant0(packetPushEnded) + sum(packetLength(packetPushStarted)) - sum(packetLength(packetPulled)) - sum(packetLength(packetRemoved)) - sum(packetLength(packetDropped))))"
attr title "queue bit length"
attr unit b
vector 314 NetworkA.maliciousNode.wlan[0].queue queueingTime:vector ETV
attr interpolationmode none
attr recordingmode vector
attr source queueingTime(packetPulled)
attr title "queueing times"
attr unit s
vector 315 NetworkA.maliciousNode.wlan[0].queue incomingPacketLengths:vector ETV
attr interpolationmode none
attr recordingmode vector
attr source packetLength(packetPushStarted)
attr title "incoming packet lengths"
attr unit b
vector 316 NetworkA.maliciousNode.wlan[0].queue incomingDataRate:vector ETV
attr interpolationmode linear
attr recordingmode vector
attr source throughput(packetPushStarted)
attr title "incoming datarate"
attr unit bps
vector 317 NetworkA.maliciousNode.wlan[0].queue outgoingPacketLengths:vector ETV
attr interpolationmode none
attr recordingmode vector
attr source packetLength(packetPulled)
attr title "outgoing packet lengths"
attr unit b
vector 318 NetworkA.maliciousNode.wlan[0].queue outgoingDataRate:vector ETV
attr interpolationmode linear
attr recordingmode vector
attr source throughput(packetPulled)
attr title "outgoing datarate"
attr unit bps
vector 319 NetworkA.maliciousNode.wlan[0].queue droppedPacketLengthsQueueOverflow:vector ETV
attr interpolationmode none
attr recordingmode vector
attr source packetLength(packetDropReasonIsQueueOverflow(packetDropped))
attr title "dropped packet lengths: queue overflow"
attr unit b
vector 320 NetworkA.maliciousNode.wlan[0].queue flowQueueingTime:vector ETV
attr interpolationmode none
attr recordingmode vector
attr source queueingTime(demuxFlow(packetPulled))
attr title "flow queueing times"
attr unit s
vector 321 NetworkA.maliciousNode.wlan[0].queue flowIncomingDataRate:vector ETV
attr interpolationmode linear
attr recordingmode vector
attr source throughput(flowPacketLength(demuxFlow(packetPushStarted)))
attr title "flow specific incoming data rate"
attr unit bps
vector 322 NetworkA.maliciousNode.wlan[0].queue flowOutgoingDataRate:vector ETV
attr interpolationmode linear
attr recordingmode vector
attr source throughput(flowPacketLength(demuxFlow(packetPulled)))
attr title "flow specific outgoing data rate"
attr unit bps
[...]
345	23853	44.7	0
345	23853	44.8	0
345	23853	44.9	0
345	23853	45	0
345	23853	45.1	0
345	23853	45.2	0
345	23853	45.3	0
345	23853	45.4	0
345	23853	45.5	0
345	23853	45.6	0
345	23853	45.7	0
345	23853	45.8	0
345	23853	45.9	0
345	23853	46	0
345	23853	46.1	0
345	23853	46.2	0
345	23853	46.3	0
345	23853	46.4	0
345	23853	46.5	0
345	23853	46.6	0
345	23853	46.7	0
345	23853	46.8	0
345	23853	46.9	0
345	23853	47	0
345	23853	47.1	0
345	23853	47.2	0
345	23853	47.3	0
345	23853	47.4	0
345	23853	47.5	0
345	23853	47.6	0
345	23853	47.7	0
345	23853	47.8	0
345	23853	47.9	0
345	23853	48	0
345	23853	48.1	0
345	23853	48.2	0
345	23853	48.3	0
345	23853	48.4	0
345	23853	48.5	0
345	23853	48.6	0
345	23853	48.7	0
345	23853	48.8	0
345	23853	48.9	0
345	23853	49	0
345	23853	49.1	0
345	23853	49.2	0
345	23853	49.3	0
345	23853	49.4	0
345	23853	49.5	0
345	23853	49.6	0
345	23853	49.7	0
345	23853	49.8	0
345	23853	49.9	0
345	23853	50	0
345	23853	50.1	0
345	23853	50.2	0
345	23853	50.3	0
345	23853	50.4	0
345	23853	50.5	0
345	23853	50.6	0
345	23853	50.7	0
345	23853	50.8	0
345	23853	50.9	0
345	23853	51	0
345	23853	51.1	0
345	23853	51.2	0
345	23853	51.3	0
345	23853	51.4	0
345	23853	51.5	0
345	23853	51.6	0
345	23853	51.7	0
345	23853	51.8	0
345	23853	51.9	0
345	23853	52	0
345	23853	52.1	0
345	23853	52.2	0
345	23853	52.3	0
345	23853	52.4	0
345	23853	52.5	0
345	23853	52.6	0
345	23853	52.7	0
345	23853	52.8	0
345	23853	52.9	0
345	23853	53	0
345	23853	53.1	0
345	23853	53.2	0
345	23853	53.3	0
345	23853	53.4	0
345	23853	53.5	0
345	23853	53.6	0
345	23853	53.7	0
345	23853	53.8	0
345	23853	53.9	0
345	23853	54	0
345	23853	54.1	0
345	23853	54.2	0
345	23853	54.3	0
345	23853	54.4	0
345	23853	54.5	0
345	23853	54.6	0
345	23853	54.7	0
345	23853	54.8	0
345	23853	54.9	0
345	23853	55	0
345	23853	55.1	0
345	23853	55.2	0
345	23853	55.3	0
345	23853	55.4	0
345	23853	55.5	0
345	23853	55.6	0
345	23853	55.7	0
345	23853	55.8	0
345	23853	55.9	0
345	23853	56	0
345	23853	56.1	0
345	23853	56.2	0
345	23853	56.3	0
345	23853	56.4	0
345	23853	56.5	0
345	23853	56.6	0
345	23853	56.7	0
345	23853	56.8	0
345	23853	56.9	0
345	23853	57	0
345	23853	57.1	0
345	23853	57.2	0
345	23853	57.3	0
345	23853	57.4	0
345	23853	57.5	0
345	23853	57.6	0
345	23853	57.7	0
345	23853	57.8	0
345	23853	57.9	0
345	23853	58	0
345	23853	58.1	0
345	23853	58.2	0
345	23853	58.3	0
345	23853	58.4	0
345	23853	58.5	0
345	23853	58.6	0
345	23853	58.7	0
345	23853	58.8	0
345	23853	58.9	0
345	23853	59	0
345	23853	59.1	0
345	23853	59.2	0
345	23853	59.3	0
345	23853	59.4	0
345	23853	59.5	0
345	23853	59.6	0
345	23853	59.7	0
345	23853	59.8	0
345	23853	59.9	0
345	23853	60	0
345	23853	60.1	0
345	23853	60.2	0
345	23853	60.3	0
345	23853	60.4	0
345	23853	60.5	0
345	23853	60.6	0
345	23853	60.7	0
345	23853	60.8	0
345	23853	60.9	0
345	23853	61	0
345	23853	61.1	0
345	23853	61.2	0
345	23853	61.3	0
345	23853	61.4	0
345	23853	61.5	0
345	23853	61.6	0
345	23853	61.7	0
345	23853	61.8	0
345	23853	61.9	0
345	23853	62	0
345	23853	62.1	0
345	23853	62.2	0
345	23853	62.3	0
345	23853	62.4	0
345	23853	62.5	0
345	23853	62.6	0
345	23853	62.7	0
345	23853	62.8	0
345	23853	62.9	0
345	23853	63	0
345	23853	63.1	0
345	23853	63.2	0
345	23853	63.3	0
345	23853	63.4	0
345	23853	63.5	0
345	23853	63.6	0
345	23853	63.7	0
345	23853	63.8	0
345	23853	63.9	0
345	23853	64	0
345	23853	64.1	0
345	23853	64.2	0
345	23853	64.3	0
345	23853	64.4	0
345	23853	64.5	0
345	23853	64.6	0
345	23853	64.7	0
345	23853	64.8	0
345	23853	64.9	0
345	23853	65	0
345	23853	65.1	0
345	23853	65.2	0
345	23853	65.3	0
345	23853	65.4	0
345	23853	65.5	0
345	23853	65.6	0
345	23853	65.7	0
345	23853	65.8	0
345	23853	65.9	0
345	23853	66	0
345	23853	66.1	0
345	23853	66.2	0
345	23853	66.3	0
345	23853	66.4	0
345	23853	66.5	0
345	23853	66.6	0
345	23853	66.7	0
345	23853	66.8	0
345	23853	66.9	0
345	23853	67	0
345	23853	67.1	0
345	23853	67.2	0
345	23853	67.3	0
345	23853	67.4	0
345	23853	67.5	0
345	23853	67.6	0
345	23853	67.7	0
345	23853	67.8	0
345	23853	67.9	0
345	23853	68	0
345	23853	68.1	0
345	23853	68.2	0
345	23853	68.3	0
345	23853	68.4	0
345	23853	68.5	0
345	23853	68.6	0
345	23853	68.7	0
345	23853	68.8	0
345	23853	68.9	0
345	23853	69	0
345	23853	69.1	0
345	23853	69.2	0
345	23853	69.3	0
345	23853	69.4	0
345	23853	69.5	0
345	23853	69.6	0
345	23853	69.7	0
345	23853	69.8	0
345	23853	69.9	0
345	23853	70	0
345	23853	70.1	0
345	23853	70.2	0
345	23853	70.3	0
345	23853	70.4	0
345	23853	70.5	0
345	23853	70.6	0
345	23853	70.7	0
345	23853	70.8	0
345	23853	70.9	0
345	23853	71	0
345	23853	71.1	0
345	23853	71.2	0
345	23853	71.3	0
345	23853	71.4	0
345	23853	71.5	0
345	23853	71.6	0
345	23853	71.7	0
345	23853	71.8	0
345	23853	71.9	0
345	23853	72	0
345	23853	72.1	0
345	23853	72.2	0
345	23853	72.3	0
345	23853	72.4	0
345	23853	72.5	0
345	23853	72.6	0
345	23853	72.7	0
345	23853	72.8	0
345	23853	72.9	0
345	23853	73	0
345	23853	73.1	0
345	23853	73.2	0
345	23853	73.3	0
345	23853	73.4	0
345	23853	73.5	0
345	23853	73.6	0
345	23853	73.7	0
345	23853	73.8	0
345	23853	73.9	0
345	23853	74	0
345	23853	74.1	0
345	23853	74.2	0
345	23853	74.3	0
345	23853	74.4	0
345	23853	74.5	0
345	23853	74.6	0
345	23853	74.7	0
345	23853	74.8	0
345	23853	74.9	0
345	23853	75	0
345	23853	75.1	0
345	23853	75.2	0
345	23853	75.3	0
345	23853	75.4	0
345	23853	75.5	0
345	23853	75.6	0
345	23853	75.7	0
345	23853	75.8	0
345	23853	75.9	0
345	23853	76	0
345	23853	76.1	0
345	23853	76.2	0
345	23853	76.3	0
345	23853	76.4	0
345	23853	76.5	0
345	23853	76.6	0
345	23853	76.7	0
345	23853	76.8	0
345	23853	76.9	0
345	23853	77	0
345	23853	77.1	0
345	23853	77.2	0
345	23853	77.3	0
345	23853	77.4	0
345	23853	77.5	0
345	23853	77.6	0
345	23853	77.7	0
345	23853	77.8	0
345	23853	77.9	0
345	23853	78	0
345	23853	78.1	0
345	23853	78.2	0
345	23853	78.3	0
345	23853	78.4	0
345	23853	78.5	0
345	23853	78.6	0
345	23853	78.7	0
345	23853	78.8	0
345	23853	78.9	0
345	23853	79	0
345	23853	79.1	0
345	23853	79.2	0
345	23853	79.3	0
345	23853	79.4	0
345	23853	79.5	0
345	23853	79.6	0
345	23853	79.7	0
345	23853	79.8	0
345	23853	79.9	0
345	23853	80	0
345	23853	80.1	0
345	23853	80.2	0
345	23853	80.3	0
345	23853	80.4	0
345	23853	80.5	0
345	23853	80.6	0
345	23853	80.7	0
345	23853	80.8	0
345	23853	80.9	0
345	23853	81	0
345	23853	81.1	0
345	23853	81.2	0
345	23853	81.3	0
345	23853	81.4	0
345	23853	81.5	0
345	23853	81.6	0
345	23853	81.7	0
345	23853	81.8	0
345	23853	81.9	0
345	23853	82	0
345	23853	82.1	0
345	23853	82.2	0
345	23853	82.3	0
345	23853	82.4	0
345	23853	82.5	0
345	23853	82.6	0
345	23853	82.7	0
345	23853	82.8	0
345	23853	82.9	0
345	23853	83	0
345	23853	83.1	0
345	23853	83.2	0
345	23853	83.3	0
345	23853	83.4	0
345	23853	83.5	0
345	23853	83.6	0
345	23853	83.7	0
345	23853	83.8	0
345	23853	83.9	0
345	23853	84	0
345	23853	84.1	0
345	23853	84.2	0
345	23853	84.3	0
345	23853	84.4	0
345	23853	84.5	0
345	23853	84.6	0
345	23853	84.7	0
345	23853	84.8	0
345	23853	84.9	0
345	23853	85	0
345	23853	85.1	0
345	23853	85.2	0
345	23853	85.3	0
345	23853	85.4	0
345	23853	85.5	0
345	23853	85.6	0
345	23853	85.7	0
345	23853	85.8	0
345	23853	85.9	0
345	23853	86	0
345	23853	86.1	0
345	23853	86.2	0
345	23853	86.3	0
345	23853	86.4	0
345	23853	86.5	0
345	23853	86.6	0
345	23853	86.7	0
345	23853	86.8	0
345	23853	86.9	0
345	23853	87	0
345	23853	87.1	0
345	23853	87.2	0
345	23853	87.3	0
345	23853	87.4	0
345	23853	87.5	0
345	23853	87.6	0
345	23853	87.7	0
345	23853	87.8	0
345	23853	87.9	0
345	23853	88	0
345	23853	88.1	0
345	23853	88.2	0
345	23853	88.3	0
345	23853	88.4	0
345	23853	88.5	0
345	23853	88.6	0
345	23853	88.7	0
345	23853	88.8	0
345	23853	88.9	0
345	23853	89	0
345	23853	89.1	0
345	23853	89.2	0
345	23853	89.3	0
345	23853	89.4	0
345	23853	89.5	0
345	23853	89.6	0
345	23853	89.7	0
345	23853	89.8	0
345	23853	89.9	0
345	23853	90	0
345	23853	90.1	0
345	23853	90.2	0
345	23853	90.3	0
345	23853	90.4	0
345	23853	90.5	0
345	23853	90.6	0
345	23853	90.7	0
345	23853	90.8	0
345	23853	90.9	0
345	23853	91	0
345	23853	91.1	0
345	23853	91.2	0
345	23853	91.3	0
345	23853	91.4	0
345	23853	91.5	0
345	23853	91.6	0
345	23853	91.7	0
345	23853	91.8	0
345	23853	91.9	0
345	23853	92	0
345	23853	92.1	0
345	23853	92.2	0
345	23853	92.3	0
345	23853	92.4	0
345	23853	92.5	0
345	23853	92.6	0
345	23853	92.7	0
345	23853	92.8	0
345	23853	92.9	0
345	23853	93	0
345	23853	93.1	0
345	23853	93.2	0
345	23853	93.3	0
345	23853	93.4	0
345	23853	93.5	0
345	23853	93.6	0
345	23853	93.7	0
345	23853	93.8	0
345	23853	93.9	0
345	23853	94	0
345	23853	94.1	0
345	23853	94.2	0
345	23853	94.3	0
345	23853	94.4	0
345	23853	94.5	0
345	23853	94.6	0
345	23853	94.7	0
345	23853	94.8	0
345	23853	94.9	0
345	23853	95	0
345	23853	95.1	0
345	23853	95.2	0
345	23853	95.3	0
345	23853	95.4	0
345	23853	95.5	0
345	23853	95.6	0
345	23853	95.7	0
345	23853	95.8	0
345	23853	95.9	0
345	23853	96	0
345	23853	96.1	0
345	23853	96.2	0
345	23853	96.3	0
345	23853	96.4	0
345	23853	96.5	0
345	23853	96.6	0
345	23853	96.7	0
345	23853	96.8	0
345	23853	96.9	0
345	23853	97	0
345	23853	97.1	0
345	23853	97.2	0
345	23853	97.3	0
345	23853	97.4	0
345	23853	97.5	0
345	23853	97.6	0
345	23853	97.7	0
345	23853	97.8	0
345	23853	97.9	0
345	23853	98	0
345	23853	98.1	0
345	23853	98.2	0
345	23853	98.3	0
345	23853	98.4	0
345	23853	98.5	0
345	23853	98.6	0
345	23853	98.7	0
345	23853	98.8	0
345	23853	98.9	0
345	23853	99	0
345	23853	99.1	0
345	23853	99.2	0
345	23853	99.3	0
345	23853	99.4	0
345	23853	99.5	0
345	23853	99.6	0
345	23853	99.7	0
345	23853	99.8	0
345	23853	99.9	0
345	23853	100	0
346	3	0	10
346	70	0.252989156416	10
346	96	0.311731284304	10
346	159	0.644612925669	10
346	186	1.039237385191	10
346	247	1.477528829448	10
346	308	1.721731526777	10
346	438	2.089032036281	10
346	466	2.310996458312	10
346	493	2.42450432197	10
346	554	2.66617573155	10
346	581	2.845142708508	10
346	710	3.160888176678	10
346	737	3.477093321055	10
346	798	3.83346813888	10
346	927	4.168709654174	10
346	954	4.366472271544	10
346	980	4.409724348672	10
346	1108	4.904201918799	10
346	1171	5.205580826598	10
346	1202	5.346682980924	10
346	1262	5.532236599241	10
346	1289	5.622873500257	10
346	1418	6.098919749673	10
346	1445	6.169566490204	10
346	1507	6.611708387767	10
346	1600	6.924010008823	10
346	1663	7.4143137058	10
346	1722	7.495709370087	10
346	1817	7.9568712197	10
346	1879	8.107931227975	10
346	1940	8.570481093675	10
346	1968	8.746801347273	10
346	2097	9.17191383487	10
346	2124	9.475507478054	10
346	2183	9.578854196832	10
346	2278	9.925817053002	10
346	2340	10.156628883333	10
346	2369	10.462848798401	10
346	2433	10.791336311476	10
346	2528	11.028720866278	10
346	2589	11.418057125021	10
346	2662	11.861581145419	10
346	2779	12.166102060029	10
346	2839	12.496997403376	10
346	2867	12.747559476113	10
346	2960	12.915807513822	10
346	3023	13.296663185947	10
346	3050	13.463347291666	10
346	3111	13.656519457272	10
346	3206	13.991789844602	10
346	3265	14.083890198473	10
346	3327	14.532553793617	10
346	3355	14.770318726117	10
346	3484	15.232072967284	10
346	3510	15.274913674912	10
346	3572	15.592304469458	10
346	3671	16.02814778356	10
346	3730	16.086002103919	10
346	3759	16.310537903562	10
346	3820	16.747069508412	10
346	3913	16.881672120675	10
346	3942	16.9881962175	10
346	4003	17.245731964985	10
346	4029	17.279529817191	10
346	4090	17.524669030877	10
346	4186	17.99050764489	10
346	4247	18.253020134444	10
346	4274	18.391019221527	10
346	4334	18.54296892518	10
346	4362	18.848176164609	10
346	4491	19.331308803316	10
346	4552	19.80488568787	10
346	4681	20.290748113195	10
346	4708	20.463851154688	10
346	4839	20.952643240079	10
346	4902	21.300354808562	10
346	4963	21.613701212516	10
346	4990	21.741727278491	10
346	5119	22.197275870682	10
346	5146	22.404421219013	10
346	5206	22.583645631011	10
346	5302	23.023154693346	10
346	5363	23.371097434422	10
346	5423	23.498463581356	10
346	5517	23.941604943485	10
346	5544	23.978794732374	10
346	5605	24.076799526524	10
346	5634	24.321997852337	10
346	5661	24.435565506177	10
346	5755	24.870896916789	10
346	5816	24.978978631097	10
346	5878	25.272553752251	10
346	5904	25.375909216183	10
346	5967	25.569825265323	10
346	6063	25.949647528206	10
346	6126	26.236938952147	10
346	6153	26.361288540448	10
346	6213	26.500682209617	10
346	6241	26.789615597307	10
346	6369	27.132825954874	10
346	6397	27.401212850986	10
346	6524	27.890523040241	10
346	6587	28.332986166216	10
346	6648	28.73760739393	10
346	6743	28.999224002442	10
346	6769	29.030511509416	10
346	6831	29.465108655234	10
346	6892	29.717334550844	10
346	6952	29.870337283103	10
346	7048	30.285843207196	10
346	7109	30.776675552122	10
346	7242	31.263812309961	10
346	7269	31.478574295503	10
346	7330	31.697013850176	10
346	7390	31.876536247039	10
346	7455	31.906964288219	10
346	7482	31.974525728965	10
346	7546	32.384477174099	10
346	7607	32.674227347705	10
346	7633	32.745088414513	10
346	7660	32.832542742524	10
346	7789	33.083869414372	10
346	7817	33.439291501351	10
346	7878	33.670175015091	10
346	8006	34.069734134458	10
346	8034	34.418379722847	10
346	8095	34.620940964113	10
346	8223	35.069664553486	10
346	8251	35.474567598026	10
346	8312	35.722579293067	10
346	8411	36.021912193843	10
346	8472	36.419144978517	10
346	8533	36.698829290757	10
346	8627	36.979960499294	10
346	8688	37.093847673413	10
346	8715	37.162671254177	10
346	8777	37.606640926286	10
346	8872	38.048278136211	10
346	8933	38.405598612802	10
346	8959	38.443456381527	10
346	9020	38.582466011544	10
346	9048	38.753901939091	10
346	9143	38.996517880921	10
346	9202	39.067815507019	10
346	9231	39.482679888905	10
346	9361	39.97908391157	10
346	9423	40.205499231183	10
346	9483	40.583062270583	10
346	9511	40.776862474138	10
346	9610	40.987955277486	10
346	9671	41.45436869885	10
346	9730	41.526145750467	10
346	9759	41.706328671655	10
346	9786	41.843985984622	10
346	9878	41.884696414388	10
346	9942	42.168377080807	10
346	9969	42.313642896534	10
346	10029	42.517350522699	10
346	10057	42.836128647977	10
346	10152	43.03893216564	10
346	10213	43.367343999081	10
346	10273	43.567192640344	10
346	10301	43.729181929313	10
346	10429	44.07887908646	10
346	10457	44.305321355312	10
346	10517	44.533542687227	10
346	10545	44.755599700569	10
346	10674	45.240828642601	10
346	10701	45.431375340235	10
346	10765	45.57856124489	10
346	10861	46.0334117074	10
346	10922	46.16683692394	10
346	10949	46.302711545347	10
346	11009	46.510699321385	10
346	11103	46.954516423107	10
346	11165	47.13360873223	10
346	11193	47.240238954485	10
346	11220	47.405954088216	10
346	11281	47.829568920597	10
346	11409	48.118365519189	10
346	11470	48.499978829604	10
346	11496	48.587608546424	10
346	11525	48.827223845173	10
346	11653	49.142804343536	10
346	11681	49.454760301087	10
346	11808	49.935882272819	10
346	11871	50.242191721368	10
346	11935	50.542650111529	10
346	11963	50.783986081075	10
346	11989	50.821097324052	10
346	12118	51.086383856626	10
346	12146	51.408561250011	10
346	12240	51.872536663166	10
346	12302	52.054256098516	10
346	12363	52.24478219349	10
346	12423	52.521574435868	10
346	12452	52.643913184888	10
346	12546	52.972451192561	10
346	12607	53.131733524836	10
346	12635	53.299064185239	10
346	12695	53.50108674564	10
346	12723	53.697633716169	10
346	12816	53.915456319556	10
346	12842	53.944499323956	10
346	12905	54.069130550915	10
346	12933	54.231774092171	10
346	12993	54.575953732829	10
346	13021	54.708818619066	10
346	13120	55.019004930017	10
346	13181	55.360965229026	10
346	13242	55.628123645126	10
346	13370	56.08990107775	10
346	13396	56.158071799387	10
346	13458	56.575813302843	10
346	13554	57.022119673682	10
346	13615	57.305827167132	10
346	13676	57.768942457673	10
346	13804	58.117273644873	10
346	13832	58.225290348384	10
346	13859	58.367394374588	10
346	13919	58.534908109459	10
346	13947	58.843928054945	10
346	14076	59.30016896065	10
346	14136	59.496789157162	10
346	14162	59.54060653051	10
346	14191	59.811472279059	10
346	14324	60.267645433986	10
346	14384	60.541073470823	10
346	14412	60.738113273143	10
346	14540	61.071425482006	10
346	14568	61.419591100861	10
346	14695	61.884299621438	10
346	14757	62.15369317408	10
346	14785	62.459931490755	10
346	14912	62.945915996322	10
346	14975	63.361232315008	10
346	15048	63.860889359189	10
346	15169	64.205108861553	10
346	15196	64.359417809631	10
346	15222	64.454568459225	10
346	15282	64.489870602763	10
346	15311	64.762818830871	10
346	15371	64.873038613101	10
346	15430	64.948865578845	10
346	15498	65.420736866861	10
346	15625	65.912864328779	10
346	15654	66.027669090444	10
346	15715	66.462148823884	10
346	15776	66.781260652198	10
346	15869	66.886547718504	10
346	15931	67.136312992636	10
346	15993	67.626795094557	10
346	16019	67.670629062618	10
346	16047	67.824473799117	10
346	16140	67.961223650797	10
346	16203	68.325262914089	10
346	16229	68.360700391079	10
346	16291	68.677601046369	10
346	16419	69.136746873687	10
346	16447	69.354138788695	10
346	16507	69.512686448193	10
346	16601	69.88788221356	10
346	16665	70.229079135197	10
346	16694	70.303145758881	10
346	16756	70.751520075827	10
346	16850	70.968535792837	10
346	16912	71.162267764859	10
346	16972	71.587586774186	10
346	17000	71.758590430747	10
346	17026	71.824113121022	10
346	17052	71.853240832446	10
346	17149	72.004134690207	10
346	17210	72.204642294753	10
346	17271	72.597033677557	10
346	17298	72.779824349469	10
346	17393	73.010491847158	10
346	17454	73.235867990796	10
346	17480	73.27462045322	10
346	17507	73.345039897719	10
346	17569	73.787266831878	10
346	17698	74.248360507357	10
346	17725	74.446693628844	10
346	17784	74.5343476716	10
346	17815	74.691084300125	10
346	17945	75.120714810337	10
346	17971	75.147548477914	10
346	18000	75.447578799903	10
346	18059	75.511229358699	10
346	18088	75.825311177961	10
346	18216	76.09143806205	10
346	18277	76.561331189154	10
346	18305	76.762992595955	10
346	18331	76.832592468992	10
346	18427	77.008753385364	10
346	18488	77.350917958711	10
346	18549	77.824805677116	10
346	18678	78.275094606237	10
346	18705	78.402911805215	10
346	18766	78.78253934172	10
346	18861	79.022759109833	10
346	18922	79.255720879968	10
346	18983	79.681076953733	10
346	19116	80.169403420451	10
346	19142	80.245521830719	10
346	19170	80.475718879296	10
346	19231	80.784024585345	10
346	19359	81.099243176628	10
346	19387	81.353855108305	10
346	19413	81.38240255885	10
346	19475	81.601346440181	10
346	19568	81.90947730984	10
346	19631	82.360810121065	10
346	19692	82.703221259223	10
346	19820	83.143561220888	10
346	19848	83.343183653595	10
346	19909	83.61846469038	10
346	19936	83.723284886745	10
346	19962	83.778472932175	10
346	20057	83.968942388249	10
346	20119	84.375316740511	10
346	20180	84.745760448815	10
346	20312	85.073555031701	10
346	20340	85.344195238248	10
346	20401	85.708845222483	10
346	20529	86.12562413404	10
346	20590	86.498936472685	10
346	20618	86.857838535254	10
346	20753	87.30514201024	10
346	20813	87.55981312217	10
346	20886	87.880012811398	10
346	20973	88.066337559434	10
346	21001	88.211809770813	10
346	21062	88.651749264726	10
346	21089	88.847326826861	10
346	21217	89.125344404052	10
346	21245	89.276888159218	10
346	21306	89.73649927243	10
346	21333	89.851632241355	10
346	21465	90.151044216575	10
346	21527	90.63382118684	10
346	21655	91.070145284784	10
346	21683	91.176938246817	10
346	21710	91.438573540058	10
346	21837	91.906589668527	10
346	21899	92.09698084113	10
346	21927	92.395359436857	10
346	21988	92.856668999655	10
346	22119	93.194821237247	10
346	22145	93.261328017233	10
346	22207	93.696476574124	10
346	22267	93.867008332784	10
346	22329	94.041430647221	10
346	22390	94.334647250796	10
346	22451	94.623103652572	10
346	22478	94.764019057484	10
346	22606	95.156246333119	10
346	22671	95.526799687299	10
346	22765	95.941310346433	10
346	22793	96.044463386163	10
346	22853	96.136145763283	10
346	22882	96.276398493248	10
346	22942	96.489134282459	10
346	22970	96.70053880176	10
346	23098	97.071230153836	10
346	23159	97.519730885447	10
346	23187	97.708846073584	10
346	23282	98.049704305698	10
346	23343	98.179253640036	10
346	23370	98.437759568529	10
346	23431	98.615867999841	10
346	23491	98.874188494995	10
346	23587	99.316795829304	10
346	23647	99.552753498899	10
346	23675	99.671451748092	10
346	23701	99.732345864327	10
346	23795	99.901828303833	10
346	23827	99.991597879875	10

