version 3
run Attacco_Silenzioso-0-20251010-20:45:46-32403
attr configname Attacco_Silenzioso
attr datetime 20251010-20:45:46
attr datetimef 20251010-204546
attr experiment Attacco_Silenzioso
attr inifile omnet802.15.4.ini
attr iterationvars ""
attr iterationvarsd ""
attr iterationvarsf ""
attr measurement ""
attr network NetworkA
attr processid 32403
attr repetition 0
attr replication #0
attr resultdir results
attr runnumber 0
attr seedset 0
config image-path ../../inet-4.5.4/images
config extends safe
config *.maliciousNode.numApps 1
config *.maliciousNode.app[0].typename UdpBasicApp
config *.maliciousNode.app[0].destAddresses "\"10.0.0.5\""
config *.maliciousNode.app[0].destPort 4000
config *.maliciousNode.app[0].messageLength 10B
config *.maliciousNode.app[0].sendInterval uniform(0.025s,0.5s)
config *.maliciousNode.app[0].startTime 0s
config *.maliciousNode.wlan[*].mac.ctrlFrameLength 20B
config *.maliciousNode.wlan[*].radio.transmitter.bitrate "125000 bps"
config network NetworkA
config sim-time-limit 100s
config output-vector-file results802154/run-Attacco_Silenzioso-0/results.vec
config output-scalar-file results802154/run-Attacco_Silenzioso-0/results.sca
config **.wlan*.mac.typename Ieee802154Mac
config **.wlan*.queue.typename DropTailQueue
config **.wlan*.queue.packetCapacity 50
config **.wlan[*].typename WirelessInterface
config **.wlan[*].radio.typename Ieee802154NarrowbandScalarRadio
config **.wlan*.mac.animation true
config **.arp.typename GlobalArp
config **.maxTransmissionDuration 100ms
config *.gateway.forwarding true
config *.sensor*.numApps 1
config *.sensor*.app[0].typename UdpBasicApp
config *.sensor*.app[0].destAddresses "\"server\""
config *.sensor*.app[0].destPort 1000
config *.sensor*.app[0].sendInterval 1s
config *.sensor*.app[0].startTime exponential(1s)
config *.sensor*.app[0].messageLength 10B
config *.gateway.numApps 1
config *.gateway.app[0].typename UdpSink
config *.gateway.app[0].localPort 4000
config *.server.numApps 1
config *.server.app[0].typename UdpSink
config *.server.app[0].localPort 1000
config *.visualizer.routingTableVisualizer.lineShift 0
config *.visualizer.infoVisualizer.modules "\"*.server.app[0]\""
config *.visualizer.networkRouteVisualizer.displayRoutes true
config *.visualizer.physicalLinkVisualizer.displayLinks true
config *.visualizer.energyStorageVisualizer.displayEnergyStorages true
config *.sensor*.energyStorage.nominalCapacity 0.5J
config *.sensor*.energyManagement.nodeShutdownCapacity 0.005J
config *.gateway.energyStorage.nominalCapacity 0.5J
config *.gateway.energyManagement.nodeShutdownCapacity 0.005J

vector 0 NetworkA.sensor4.energyStorage powerConsumption:vector ETV
attr interpolationmode sample-hold
attr recordingmode vector
attr source powerConsumptionChanged
attr title "Power consumption"
attr unit W
vector 1 NetworkA.sensor4.energyStorage powerGeneration:vector ETV
attr interpolationmode sample-hold
attr recordingmode vector
attr source powerGenerationChanged
attr title "Power generation"
attr unit W
vector 2 NetworkA.sensor4.energyStorage residualEnergyCapacity:vector ETV
attr interpolationmode linear
attr recordingmode vector
attr source residualEnergyCapacityChanged
attr title "Residual energy capacity"
attr unit J
vector 3 NetworkA.sensor4.lo[0].lo rcvdPkFromHl:vector(packetBytes) ETV
attr interpolationmode none
attr recordingmode vector(packetBytes)
attr source packetReceivedFromUpper
attr title "packets received from higher layer, packetBytes"
vector 4 NetworkA.sensor4.lo[0].lo passedUpPk:vector(packetBytes) ETV
attr interpolationmode none
attr recordingmode vector(packetBytes)
attr source packetSentToUpper
attr title "packets passed to higher layer, packetBytes"
vector 5 NetworkA.sensor4.lo[0] packetDropInterfaceDown:vector(packetBytes) ETV
attr interpolationmode none
attr recordingmode vector(packetBytes)
attr source packetDropReasonIsInterfaceDown(packetDropped)
attr title "packet drops: interface down, packetBytes"
vector 6 NetworkA.sensor4.lo[0] packetDropNoCarrier:vector(packetBytes) ETV
attr interpolationmode none
attr recordingmode vector(packetBytes)
attr source packetDropReasonIsNoCarrier(packetDropped)
attr title "packet drops: no carrier, packetBytes"
vector 7 NetworkA.sensor4.wlan[0].queue queueLength:vector ETV
attr autoWarmupFilter false
attr interpolationmode sample-hold
attr recordingmode vector
attr source "warmup(atomic(constant0(packetPushEnded) + count(packetPushStarted) - count(packetPulled) - count(packetRemoved) - count(packetDropped)))"
attr title "queue length"
attr unit pk
vector 8 NetworkA.sensor4.wlan[0].queue queueBitLength:vector ETV
attr autoWarmupFilter false
attr interpolationmode sample-hold
attr recordingmode vector
attr source "warmup(atomic(constant0(packetPushEnded) + sum(packetLength(packetPushStarted)) - sum(packetLength(packetPulled)) - sum(packetLength(packetRemoved)) - sum(packetLength(packetDropped))))"
attr title "queue bit length"
attr unit b
vector 9 NetworkA.sensor4.wlan[0].queue queueingTime:vector ETV
attr interpolationmode none
attr recordingmode vector
attr source queueingTime(packetPulled)
attr title "queueing times"
attr unit s
vector 10 NetworkA.sensor4.wlan[0].queue incomingPacketLengths:vector ETV
attr interpolationmode none
attr recordingmode vector
attr source packetLength(packetPushStarted)
attr title "incoming packet lengths"
attr unit b
vector 11 NetworkA.sensor4.wlan[0].queue incomingDataRate:vector ETV
attr interpolationmode linear
attr recordingmode vector
attr source throughput(packetPushStarted)
attr title "incoming datarate"
attr unit bps
vector 12 NetworkA.sensor4.wlan[0].queue outgoingPacketLengths:vector ETV
attr interpolationmode none
attr recordingmode vector
attr source packetLength(packetPulled)
attr title "outgoing packet lengths"
attr unit b
vector 13 NetworkA.sensor4.wlan[0].queue outgoingDataRate:vector ETV
attr interpolationmode linear
attr recordingmode vector
attr source throughput(packetPulled)
attr title "outgoing datarate"
attr unit bps
vector 14 NetworkA.sensor4.wlan[0].queue droppedPacketLengthsQueueOverflow:vector ETV
attr interpolationmode none
attr recordingmode vector
attr source packetLength(packetDropReasonIsQueueOverflow(packetDropped))
attr title "dropped packet lengths: queue overflow"
attr unit b
vector 15 NetworkA.sensor4.wlan[0].queue flowQueueingTime:vector ETV
attr interpolationmode none
attr recordingmode vector
attr source queueingTime(demuxFlow(packetPulled))
attr title "flow queueing times"
attr unit s
vector 16 NetworkA.sensor4.wlan[0].queue flowIncomingDataRate:vector ETV
attr interpolationmode linear
attr recordingmode vector
attr source throughput(flowPacketLength(demuxFlow(packetPushStarted)))
attr title "flow specific incoming data rate"
attr unit bps
vector 17 NetworkA.sensor4.wlan[0].queue flowOutgoingDataRate:vector ETV
attr interpolationmode linear
attr recordingmode vector
attr source throughput(flowPacketLength(demuxFlow(packetPulled)))
attr title "flow specific outgoing data rate"
attr unit bps
vector 18 NetworkA.sensor4.wlan[0].mac packetDropNotAddressToUs:vector(packetBytes) ETV
attr interpolationmode none
attr recordingmode vector(packetBytes)
attr source packetDropReasonIsNotAddressedToUs(packetDropped)
attr title "packet drop: not addressed to us, packetBytes"
vector 19 NetworkA.sensor4.wlan[0].mac packetDropIncorrectlyReceived:vector(packetBytes) ETV
attr interpolationmode none
attr recordingmode vector(packetBytes)
attr source packetDropReasonIsIncorrectlyReceived(packetDropped)
attr title "packet drop: incorrectly received, packetBytes"
vector 20 NetworkA.sensor4.wlan[0].mac packetDropQueueOverflow:vector(packetBytes) ETV
attr interpolationmode none
attr recordingmode vector(packetBytes)
attr source packetDropReasonIsQueueOverflow(packetDropped)
attr title "packet drop: queue overflow, packetBytes"
vector 21 NetworkA.sensor4.wlan[0].mac packetDropRetryLimitReached:vector(packetBytes) ETV
attr interpolationmode none
attr recordingmode vector(packetBytes)
attr source packetDropReasonIsRetryLimitReached(packetDropped)
attr title "packet drop: retry limit reached, packetBytes"
vector 22 NetworkA.sensor4.wlan[0].mac packetDropBackoffLimitReached:vector(packetBytes) ETV
attr interpolationmode none
attr recordingmode vector(packetBytes)
attr source packetDropReasonIsCongestion(packetDropped)
attr title "packet drop: backoff limit reached, packetBytes"
vector 23 NetworkA.sensor4.wlan[0].radio.energyConsumer rxPowerConsumptionVector:vector ETV
attr interpolationmode sample-hold
attr recordingmode vector
attr source rxPowerConsumption
attr title "RX Power consumption over time"
attr unit W
vector 24 NetworkA.sensor4.wlan[0].radio.energyConsumer txPowerConsumptionVector:vector ETV
attr interpolationmode sample-hold
attr recordingmode vector
attr source txPowerConsumption
attr title "TX Power consumption over time"
attr unit W
vector 25 NetworkA.sensor4.wlan[0].radio.energyConsumer sleepTimeVector:vector ETV
attr interpolationmode sample-hold
attr recordingmode vector
attr source sleepTime
attr title "Total sleep time over time"
attr unit s
vector 26 NetworkA.sensor4.wlan[0].radio radioMode:vector ETV
attr interpolationmode sample-hold
attr recordingmode vector
attr source radioModeChanged
attr title "Radio mode"
vector 27 NetworkA.sensor4.wlan[0].radio receptionState:vector ETV
attr interpolationmode sample-hold
attr recordingmode vector
attr source receptionStateChanged
attr title "Radio reception state"
vector 28 NetworkA.sensor4.wlan[0].radio transmissionState:vector ETV
attr interpolationmode sample-hold
attr recordingmode vector
attr source transmissionStateChanged
attr title "Radio transmission state"
vector 29 NetworkA.sensor4.wlan[0] packetDropInterfaceDown:vector(packetBytes) ETV
attr interpolationmode none
attr recordingmode vector(packetBytes)
attr source packetDropReasonIsInterfaceDown(packetDropped)
attr title "packet drops: interface down, packetBytes"
vector 30 NetworkA.sensor4.wlan[0] packetDropNoCarrier:vector(packetBytes) ETV
attr interpolationmode none
attr recordingmode vector(packetBytes)
attr source packetDropReasonIsNoCarrier(packetDropped)
attr title "packet drops: no carrier, packetBytes"
vector 31 NetworkA.sensor4.ipv4.ip packetDropAddressResolutionFailed:vector(packetBytes) ETV
attr interpolationmode none
attr recordingmode vector(packetBytes)
attr source packetDropReasonIsAddressResolutionFailed(packetDropped)
attr title "packet drop: address resolution failed, packetBytes"
vector 32 NetworkA.sensor4.ipv4.ip packetDropHopLimitReached:vector(packetBytes) ETV
attr interpolationmode none
attr recordingmode vector(packetBytes)
attr source packetDropReasonIsHopLimitReached(packetDropped)
attr title "packet drop: hop limit reached, packetBytes"
vector 33 NetworkA.sensor4.ipv4.ip packetDropForwardingDisabled:vector(packetBytes) ETV
attr interpolationmode none
attr recordingmode vector(packetBytes)
attr source packetDropReasonIsForwardingDisabled(packetDropped)
attr title "packet drop: forwarding disabled, packetBytes"
vector 34 NetworkA.sensor4.ipv4.ip packetDropNoInterfaceFound:vector(packetBytes) ETV
attr interpolationmode none
attr recordingmode vector(packetBytes)
attr source packetDropReasonIsNoInterfaceFound(packetDropped)
attr title "packet drop: no interface found, packetBytes"
vector 35 NetworkA.sensor4.ipv4.ip packetDropNoRouteFound:vector(packetBytes) ETV
attr interpolationmode none
attr recordingmode vector(packetBytes)
attr source packetDropReasonIsNoRouteFound(packetDropped)
attr title "packet drop: no route found, packetBytes"
vector 36 NetworkA.sensor4.ipv4.ip packetDropUndefined:vector(packetBytes) ETV
attr interpolationmode none
attr recordingmode vector(packetBytes)
attr source packetDropReasonIsUndefined(packetDropped)
attr title "packet drop: undefined, packetBytes"
vector 37 NetworkA.sensor4.udp packetSent:vector(packetBytes) ETV
attr interpolationmode none
attr recordingmode vector(packetBytes)
attr source packetSent
attr title "packets sent, packetBytes"
vector 38 NetworkA.sensor4.udp packetReceived:vector(packetBytes) ETV
attr interpolationmode none
attr recordingmode vector(packetBytes)
attr source packetReceived
attr title "packets received, packetBytes"
vector 39 NetworkA.sensor4.udp passedUpPk:vector(count) ETV
attr interpolationmode none
attr recordingmode vector(count)
attr source packetSentToUpper
attr title "packets passed up, count"
vector 40 NetworkA.sensor4.udp droppedPkWrongPort:vector(count) ETV
attr interpolationmode none
attr recordingmode vector(count)
attr source packetDropReasonIsNoPortFound(packetDropped)
attr title "packets dropped (wrong port), count"
vector 41 NetworkA.sensor4.udp droppedPkBadChecksum:vector(count) ETV
attr interpolationmode none
attr recordingmode vector(count)
attr source packetDropReasonIsIncorrectlyReceived(packetDropped)
attr title "packets dropped (checksum error), count"
vector 42 NetworkA.sensor4.app[0] packetReceived:vector(packetBytes) ETV
attr interpolationmode none
attr recordingmode vector(packetBytes)
attr source packetReceived
attr title "packets received, packetBytes"
vector 43 NetworkA.sensor4.app[0] throughput:vector ETV
attr recordingmode vector
attr source throughput(packetReceived)
attr title throughput
attr unit bps
vector 44 NetworkA.sensor4.app[0] packetSent:vector(packetBytes) ETV
attr interpolationmode none
attr recordingmode vector(packetBytes)
attr source packetSent
attr title "packets sent, packetBytes"
vector 45 NetworkA.sensor4.app[0] rcvdPkLifetime:vector ETV
attr interpolationmode none
attr recordingmode vector
attr source dataAge(packetReceived)
attr title "received packet lifetime"
attr unit s
vector 46 NetworkA.sensor4.app[0] rcvdPkSeqNo:vector ETV
attr interpolationmode none
attr recordingmode vector
attr source appPkSeqNo(packetReceived)
attr title "received packet sequence number"
vector 47 NetworkA.sensor1.energyStorage powerConsumption:vector ETV
attr interpolationmode sample-hold
attr recordingmode vector
attr source powerConsumptionChanged
attr title "Power consumption"
attr unit W
vector 48 NetworkA.sensor1.energyStorage powerGeneration:vector ETV
attr interpolationmode sample-hold
attr recordingmode vector
attr source powerGenerationChanged
attr title "Power generation"
attr unit W
vector 49 NetworkA.sensor1.energyStorage residualEnergyCapacity:vector ETV
attr interpolationmode linear
attr recordingmode vector
attr source residualEnergyCapacityChanged
attr title "Residual energy capacity"
attr unit J
vector 50 NetworkA.sensor1.lo[0].lo rcvdPkFromHl:vector(packetBytes) ETV
attr interpolationmode none
attr recordingmode vector(packetBytes)
attr source packetReceivedFromUpper
attr title "packets received from higher layer, packetBytes"
vector 51 NetworkA.sensor1.lo[0].lo passedUpPk:vector(packetBytes) ETV
attr interpolationmode none
attr recordingmode vector(packetBytes)
attr source packetSentToUpper
attr title "packets passed to higher layer, packetBytes"
vector 52 NetworkA.sensor1.lo[0] packetDropInterfaceDown:vector(packetBytes) ETV
attr interpolationmode none
attr recordingmode vector(packetBytes)
attr source packetDropReasonIsInterfaceDown(packetDropped)
attr title "packet drops: interface down, packetBytes"
vector 53 NetworkA.sensor1.lo[0] packetDropNoCarrier:vector(packetBytes) ETV
attr interpolationmode none
attr recordingmode vector(packetBytes)
attr source packetDropReasonIsNoCarrier(packetDropped)
attr title "packet drops: no carrier, packetBytes"
vector 54 NetworkA.sensor1.wlan[0].queue queueLength:vector ETV
attr autoWarmupFilter false
attr interpolationmode sample-hold
attr recordingmode vector
attr source "warmup(atomic(constant0(packetPushEnded) + count(packetPushStarted) - count(packetPulled) - count(packetRemoved) - count(packetDropped)))"
attr title "queue length"
attr unit pk
vector 55 NetworkA.sensor1.wlan[0].queue queueBitLength:vector ETV
attr autoWarmupFilter false
attr interpolationmode sample-hold
attr recordingmode vector
attr source "warmup(atomic(constant0(packetPushEnded) + sum(packetLength(packetPushStarted)) - sum(packetLength(packetPulled)) - sum(packetLength(packetRemoved)) - sum(packetLength(packetDropped))))"
attr title "queue bit length"
attr unit b
vector 56 NetworkA.sensor1.wlan[0].queue queueingTime:vector ETV
attr interpolationmode none
attr recordingmode vector
attr source queueingTime(packetPulled)
attr title "queueing times"
attr unit s
vector 57 NetworkA.sensor1.wlan[0].queue incomingPacketLengths:vector ETV
attr interpolationmode none
attr recordingmode vector
attr source packetLength(packetPushStarted)
attr title "incoming packet lengths"
attr unit b
vector 58 NetworkA.sensor1.wlan[0].queue incomingDataRate:vector ETV
attr interpolationmode linear
attr recordingmode vector
attr source throughput(packetPushStarted)
attr title "incoming datarate"
attr unit bps
vector 59 NetworkA.sensor1.wlan[0].queue outgoingPacketLengths:vector ETV
attr interpolationmode none
attr recordingmode vector
attr source packetLength(packetPulled)
attr title "outgoing packet lengths"
attr unit b
vector 60 NetworkA.sensor1.wlan[0].queue outgoingDataRate:vector ETV
attr interpolationmode linear
attr recordingmode vector
attr source throughput(packetPulled)
attr title "outgoing datarate"
attr unit bps
vector 61 NetworkA.sensor1.wlan[0].queue droppedPacketLengthsQueueOverflow:vector ETV
attr interpolationmode none
attr recordingmode vector
attr source packetLength(packetDropReasonIsQueueOverflow(packetDropped))
attr title "dropped packet lengths: queue overflow"
attr unit b
vector 62 NetworkA.sensor1.wlan[0].queue flowQueueingTime:vector ETV
attr interpolationmode none
attr recordingmode vector
attr source queueingTime(demuxFlow(packetPulled))
attr title "flow queueing times"
attr unit s
vector 63 NetworkA.sensor1.wlan[0].queue flowIncomingDataRate:vector ETV
attr interpolationmode linear
attr recordingmode vector
attr source throughput(flowPacketLength(demuxFlow(packetPushStarted)))
attr title "flow specific incoming data rate"
attr unit bps
vector 64 NetworkA.sensor1.wlan[0].queue flowOutgoingDataRate:vector ETV
attr interpolationmode linear
attr recordingmode vector
attr source throughput(flowPacketLength(demuxFlow(packetPulled)))
attr title "flow specific outgoing data rate"
attr unit bps
vector 65 NetworkA.sensor1.wlan[0].mac packetDropNotAddressToUs:vector(packetBytes) ETV
attr interpolationmode none
attr recordingmode vector(packetBytes)
attr source packetDropReasonIsNotAddressedToUs(packetDropped)
attr title "packet drop: not addressed to us, packetBytes"
vector 66 NetworkA.sensor1.wlan[0].mac packetDropIncorrectlyReceived:vector(packetBytes) ETV
attr interpolationmode none
attr recordingmode vector(packetBytes)
attr source packetDropReasonIsIncorrectlyReceived(packetDropped)
attr title "packet drop: incorrectly received, packetBytes"
vector 67 NetworkA.sensor1.wlan[0].mac packetDropQueueOverflow:vector(packetBytes) ETV
attr interpolationmode none
attr recordingmode vector(packetBytes)
attr source packetDropReasonIsQueueOverflow(packetDropped)
attr title "packet drop: queue overflow, packetBytes"
vector 68 NetworkA.sensor1.wlan[0].mac packetDropRetryLimitReached:vector(packetBytes) ETV
attr interpolationmode none
attr recordingmode vector(packetBytes)
attr source packetDropReasonIsRetryLimitReached(packetDropped)
attr title "packet drop: retry limit reached, packetBytes"
vector 69 NetworkA.sensor1.wlan[0].mac packetDropBackoffLimitReached:vector(packetBytes) ETV
attr interpolationmode none
attr recordingmode vector(packetBytes)
attr source packetDropReasonIsCongestion(packetDropped)
attr title "packet drop: backoff limit reached, packetBytes"
vector 70 NetworkA.sensor1.wlan[0].radio.energyConsumer rxPowerConsumptionVector:vector ETV
attr interpolationmode sample-hold
attr recordingmode vector
attr source rxPowerConsumption
attr title "RX Power consumption over time"
attr unit W
vector 71 NetworkA.sensor1.wlan[0].radio.energyConsumer txPowerConsumptionVector:vector ETV
attr interpolationmode sample-hold
attr recordingmode vector
attr source txPowerConsumption
attr title "TX Power consumption over time"
attr unit W
vector 72 NetworkA.sensor1.wlan[0].radio.energyConsumer sleepTimeVector:vector ETV
attr interpolationmode sample-hold
attr recordingmode vector
attr source sleepTime
attr title "Total sleep time over time"
attr unit s
vector 73 NetworkA.sensor1.wlan[0].radio radioMode:vector ETV
attr interpolationmode sample-hold
attr recordingmode vector
attr source radioModeChanged
attr title "Radio mode"
vector 74 NetworkA.sensor1.wlan[0].radio receptionState:vector ETV
attr interpolationmode sample-hold
attr recordingmode vector
attr source receptionStateChanged
attr title "Radio reception state"
vector 75 NetworkA.sensor1.wlan[0].radio transmissionState:vector ETV
attr interpolationmode sample-hold
attr recordingmode vector
attr source transmissionStateChanged
attr title "Radio transmission state"
vector 76 NetworkA.sensor1.wlan[0] packetDropInterfaceDown:vector(packetBytes) ETV
attr interpolationmode none
attr recordingmode vector(packetBytes)
attr source packetDropReasonIsInterfaceDown(packetDropped)
attr title "packet drops: interface down, packetBytes"
vector 77 NetworkA.sensor1.wlan[0] packetDropNoCarrier:vector(packetBytes) ETV
attr interpolationmode none
attr recordingmode vector(packetBytes)
attr source packetDropReasonIsNoCarrier(packetDropped)
attr title "packet drops: no carrier, packetBytes"
vector 78 NetworkA.sensor1.ipv4.ip packetDropAddressResolutionFailed:vector(packetBytes) ETV
attr interpolationmode none
attr recordingmode vector(packetBytes)
attr source packetDropReasonIsAddressResolutionFailed(packetDropped)
attr title "packet drop: address resolution failed, packetBytes"
vector 79 NetworkA.sensor1.ipv4.ip packetDropHopLimitReached:vector(packetBytes) ETV
attr interpolationmode none
attr recordingmode vector(packetBytes)
attr source packetDropReasonIsHopLimitReached(packetDropped)
attr title "packet drop: hop limit reached, packetBytes"
vector 80 NetworkA.sensor1.ipv4.ip packetDropForwardingDisabled:vector(packetBytes) ETV
attr interpolationmode none
attr recordingmode vector(packetBytes)
attr source packetDropReasonIsForwardingDisabled(packetDropped)
attr title "packet drop: forwarding disabled, packetBytes"
vector 81 NetworkA.sensor1.ipv4.ip packetDropNoInterfaceFound:vector(packetBytes) ETV
attr interpolationmode none
attr recordingmode vector(packetBytes)
attr source packetDropReasonIsNoInterfaceFound(packetDropped)
attr title "packet drop: no interface found, packetBytes"
vector 82 NetworkA.sensor1.ipv4.ip packetDropNoRouteFound:vector(packetBytes) ETV
attr interpolationmode none
attr recordingmode vector(packetBytes)
attr source packetDropReasonIsNoRouteFound(packetDropped)
attr title "packet drop: no route found, packetBytes"
vector 83 NetworkA.sensor1.ipv4.ip packetDropUndefined:vector(packetBytes) ETV
attr interpolationmode none
attr recordingmode vector(packetBytes)
attr source packetDropReasonIsUndefined(packetDropped)
attr title "packet drop: undefined, packetBytes"
vector 84 NetworkA.sensor1.udp packetSent:vector(packetBytes) ETV
attr interpolationmode none
attr recordingmode vector(packetBytes)
attr source packetSent
attr title "packets sent, packetBytes"
vector 85 NetworkA.sensor1.udp packetReceived:vector(packetBytes) ETV
attr interpolationmode none
attr recordingmode vector(packetBytes)
attr source packetReceived
attr title "packets received, packetBytes"
vector 86 NetworkA.sensor1.udp passedUpPk:vector(count) ETV
attr interpolationmode none
attr recordingmode vector(count)
attr source packetSentToUpper
attr title "packets passed up, count"
vector 87 NetworkA.sensor1.udp droppedPkWrongPort:vector(count) ETV
attr interpolationmode none
attr recordingmode vector(count)
attr source packetDropReasonIsNoPortFound(packetDropped)
attr title "packets dropped (wrong port), count"
vector 88 NetworkA.sensor1.udp droppedPkBadChecksum:vector(count) ETV
attr interpolationmode none
attr recordingmode vector(count)
attr source packetDropReasonIsIncorrectlyReceived(packetDropped)
attr title "packets dropped (checksum error), count"
vector 89 NetworkA.sensor1.app[0] packetReceived:vector(packetBytes) ETV
attr interpolationmode none
attr recordingmode vector(packetBytes)
attr source packetReceived
attr title "packets received, packetBytes"
vector 90 NetworkA.sensor1.app[0] throughput:vector ETV
attr recordingmode vector
attr source throughput(packetReceived)
attr title throughput
attr unit bps
vector 91 NetworkA.sensor1.app[0] packetSent:vector(packetBytes) ETV
attr interpolationmode none
attr recordingmode vector(packetBytes)
attr source packetSent
attr title "packets sent, packetBytes"
vector 92 NetworkA.sensor1.app[0] rcvdPkLifetime:vector ETV
attr interpolationmode none
attr recordingmode vector
attr source dataAge(packetReceived)
attr title "received packet lifetime"
attr unit s
vector 93 NetworkA.sensor1.app[0] rcvdPkSeqNo:vector ETV
attr interpolationmode none
attr recordingmode vector
attr source appPkSeqNo(packetReceived)
attr title "received packet sequence number"
vector 94 NetworkA.sensor2.energyStorage powerConsumption:vector ETV
attr interpolationmode sample-hold
attr recordingmode vector
attr source powerConsumptionChanged
attr title "Power consumption"
attr unit W
vector 95 NetworkA.sensor2.energyStorage powerGeneration:vector ETV
attr interpolationmode sample-hold
attr recordingmode vector
attr source powerGenerationChanged
attr title "Power generation"
attr unit W
vector 96 NetworkA.sensor2.energyStorage residualEnergyCapacity:vector ETV
attr interpolationmode linear
attr recordingmode vector
attr source residualEnergyCapacityChanged
attr title "Residual energy capacity"
attr unit J
vector 97 NetworkA.sensor2.lo[0].lo rcvdPkFromHl:vector(packetBytes) ETV
attr interpolationmode none
attr recordingmode vector(packetBytes)
attr source packetReceivedFromUpper
attr title "packets received from higher layer, packetBytes"
vector 98 NetworkA.sensor2.lo[0].lo passedUpPk:vector(packetBytes) ETV
attr interpolationmode none
attr recordingmode vector(packetBytes)
attr source packetSentToUpper
attr title "packets passed to higher layer, packetBytes"
vector 99 NetworkA.sensor2.lo[0] packetDropInterfaceDown:vector(packetBytes) ETV
attr interpolationmode none
attr recordingmode vector(packetBytes)
attr source packetDropReasonIsInterfaceDown(packetDropped)
attr title "packet drops: interface down, packetBytes"
vector 100 NetworkA.sensor2.lo[0] packetDropNoCarrier:vector(packetBytes) ETV
attr interpolationmode none
attr recordingmode vector(packetBytes)
attr source packetDropReasonIsNoCarrier(packetDropped)
attr title "packet drops: no carrier, packetBytes"
vector 101 NetworkA.sensor2.wlan[0].queue queueLength:vector ETV
attr autoWarmupFilter false
attr interpolationmode sample-hold
attr recordingmode vector
attr source "warmup(atomic(constant0(packetPushEnded) + count(packetPushStarted) - count(packetPulled) - count(packetRemoved) - count(packetDropped)))"
attr title "queue length"
attr unit pk
vector 102 NetworkA.sensor2.wlan[0].queue queueBitLength:vector ETV
attr autoWarmupFilter false
attr interpolationmode sample-hold
attr recordingmode vector
attr source "warmup(atomic(constant0(packetPushEnded) + sum(packetLength(packetPushStarted)) - sum(packetLength(packetPulled)) - sum(packetLength(packetRemoved)) - sum(packetLength(packetDropped))))"
attr title "queue bit length"
attr unit b
vector 103 NetworkA.sensor2.wlan[0].queue queueingTime:vector ETV
attr interpolationmode none
attr recordingmode vector
attr source queueingTime(packetPulled)
attr title "queueing times"
attr unit s
vector 104 NetworkA.sensor2.wlan[0].queue incomingPacketLengths:vector ETV
attr interpolationmode none
attr recordingmode vector
attr source packetLength(packetPushStarted)
attr title "incoming packet lengths"
attr unit b
vector 105 NetworkA.sensor2.wlan[0].queue incomingDataRate:vector ETV
attr interpolationmode linear
attr recordingmode vector
attr source throughput(packetPushStarted)
attr title "incoming datarate"
attr unit bps
vector 106 NetworkA.sensor2.wlan[0].queue outgoingPacketLengths:vector ETV
attr interpolationmode none
attr recordingmode vector
attr source packetLength(packetPulled)
attr title "outgoing packet lengths"
attr unit b
vector 107 NetworkA.sensor2.wlan[0].queue outgoingDataRate:vector ETV
attr interpolationmode linear
attr recordingmode vector
attr source throughput(packetPulled)
attr title "outgoing datarate"
attr unit bps
vector 108 NetworkA.sensor2.wlan[0].queue droppedPacketLengthsQueueOverflow:vector ETV
attr interpolationmode none
attr recordingmode vector
attr source packetLength(packetDropReasonIsQueueOverflow(packetDropped))
attr title "dropped packet lengths: queue overflow"
attr unit b
vector 109 NetworkA.sensor2.wlan[0].queue flowQueueingTime:vector ETV
attr interpolationmode none
attr recordingmode vector
attr source queueingTime(demuxFlow(packetPulled))
attr title "flow queueing times"
attr unit s
vector 110 NetworkA.sensor2.wlan[0].queue flowIncomingDataRate:vector ETV
attr interpolationmode linear
attr recordingmode vector
attr source throughput(flowPacketLength(demuxFlow(packetPushStarted)))
attr title "flow specific incoming data rate"
attr unit bps
vector 111 NetworkA.sensor2.wlan[0].queue flowOutgoingDataRate:vector ETV
attr interpolationmode linear
attr recordingmode vector
attr source throughput(flowPacketLength(demuxFlow(packetPulled)))
attr title "flow specific outgoing data rate"
attr unit bps
vector 112 NetworkA.sensor2.wlan[0].mac packetDropNotAddressToUs:vector(packetBytes) ETV
attr interpolationmode none
attr recordingmode vector(packetBytes)
attr source packetDropReasonIsNotAddressedToUs(packetDropped)
attr title "packet drop: not addressed to us, packetBytes"
vector 113 NetworkA.sensor2.wlan[0].mac packetDropIncorrectlyReceived:vector(packetBytes) ETV
attr interpolationmode none
attr recordingmode vector(packetBytes)
attr source packetDropReasonIsIncorrectlyReceived(packetDropped)
attr title "packet drop: incorrectly received, packetBytes"
vector 114 NetworkA.sensor2.wlan[0].mac packetDropQueueOverflow:vector(packetBytes) ETV
attr interpolationmode none
attr recordingmode vector(packetBytes)
attr source packetDropReasonIsQueueOverflow(packetDropped)
attr title "packet drop: queue overflow, packetBytes"
vector 115 NetworkA.sensor2.wlan[0].mac packetDropRetryLimitReached:vector(packetBytes) ETV
attr interpolationmode none
attr recordingmode vector(packetBytes)
attr source packetDropReasonIsRetryLimitReached(packetDropped)
attr title "packet drop: retry limit reached, packetBytes"
vector 116 NetworkA.sensor2.wlan[0].mac packetDropBackoffLimitReached:vector(packetBytes) ETV
attr interpolationmode none
attr recordingmode vector(packetBytes)
attr source packetDropReasonIsCongestion(packetDropped)
attr title "packet drop: backoff limit reached, packetBytes"
vector 117 NetworkA.sensor2.wlan[0].radio.energyConsumer rxPowerConsumptionVector:vector ETV
attr interpolationmode sample-hold
attr recordingmode vector
attr source rxPowerConsumption
attr title "RX Power consumption over time"
attr unit W
vector 118 NetworkA.sensor2.wlan[0].radio.energyConsumer txPowerConsumptionVector:vector ETV
attr interpolationmode sample-hold
attr recordingmode vector
attr source txPowerConsumption
attr title "TX Power consumption over time"
attr unit W
vector 119 NetworkA.sensor2.wlan[0].radio.energyConsumer sleepTimeVector:vector ETV
attr interpolationmode sample-hold
attr recordingmode vector
attr source sleepTime
attr title "Total sleep time over time"
attr unit s
vector 120 NetworkA.sensor2.wlan[0].radio radioMode:vector ETV
attr interpolationmode sample-hold
attr recordingmode vector
attr source radioModeChanged
attr title "Radio mode"
vector 121 NetworkA.sensor2.wlan[0].radio receptionState:vector ETV
attr interpolationmode sample-hold
attr recordingmode vector
attr source receptionStateChanged
attr title "Radio reception state"
vector 122 NetworkA.sensor2.wlan[0].radio transmissionState:vector ETV
attr interpolationmode sample-hold
attr recordingmode vector
attr source transmissionStateChanged
attr title "Radio transmission state"
vector 123 NetworkA.sensor2.wlan[0] packetDropInterfaceDown:vector(packetBytes) ETV
attr interpolationmode none
attr recordingmode vector(packetBytes)
attr source packetDropReasonIsInterfaceDown(packetDropped)
attr title "packet drops: interface down, packetBytes"
vector 124 NetworkA.sensor2.wlan[0] packetDropNoCarrier:vector(packetBytes) ETV
attr interpolationmode none
attr recordingmode vector(packetBytes)
attr source packetDropReasonIsNoCarrier(packetDropped)
attr title "packet drops: no carrier, packetBytes"
vector 125 NetworkA.sensor2.ipv4.ip packetDropAddressResolutionFailed:vector(packetBytes) ETV
attr interpolationmode none
attr recordingmode vector(packetBytes)
attr source packetDropReasonIsAddressResolutionFailed(packetDropped)
attr title "packet drop: address resolution failed, packetBytes"
vector 126 NetworkA.sensor2.ipv4.ip packetDropHopLimitReached:vector(packetBytes) ETV
attr interpolationmode none
attr recordingmode vector(packetBytes)
attr source packetDropReasonIsHopLimitReached(packetDropped)
attr title "packet drop: hop limit reached, packetBytes"
vector 127 NetworkA.sensor2.ipv4.ip packetDropForwardingDisabled:vector(packetBytes) ETV
attr interpolationmode none
attr recordingmode vector(packetBytes)
attr source packetDropReasonIsForwardingDisabled(packetDropped)
attr title "packet drop: forwarding disabled, packetBytes"
vector 128 NetworkA.sensor2.ipv4.ip packetDropNoInterfaceFound:vector(packetBytes) ETV
attr interpolationmode none
attr recordingmode vector(packetBytes)
attr source packetDropReasonIsNoInterfaceFound(packetDropped)
attr title "packet drop: no interface found, packetBytes"
vector 129 NetworkA.sensor2.ipv4.ip packetDropNoRouteFound:vector(packetBytes) ETV
attr interpolationmode none
attr recordingmode vector(packetBytes)
attr source packetDropReasonIsNoRouteFound(packetDropped)
attr title "packet drop: no route found, packetBytes"
vector 130 NetworkA.sensor2.ipv4.ip packetDropUndefined:vector(packetBytes) ETV
attr interpolationmode none
attr recordingmode vector(packetBytes)
attr source packetDropReasonIsUndefined(packetDropped)
attr title "packet drop: undefined, packetBytes"
vector 131 NetworkA.sensor2.udp packetSent:vector(packetBytes) ETV
attr interpolationmode none
attr recordingmode vector(packetBytes)
attr source packetSent
attr title "packets sent, packetBytes"
vector 132 NetworkA.sensor2.udp packetReceived:vector(packetBytes) ETV
attr interpolationmode none
attr recordingmode vector(packetBytes)
attr source packetReceived
attr title "packets received, packetBytes"
vector 133 NetworkA.sensor2.udp passedUpPk:vector(count) ETV
attr interpolationmode none
attr recordingmode vector(count)
attr source packetSentToUpper
attr title "packets passed up, count"
vector 134 NetworkA.sensor2.udp droppedPkWrongPort:vector(count) ETV
attr interpolationmode none
attr recordingmode vector(count)
attr source packetDropReasonIsNoPortFound(packetDropped)
attr title "packets dropped (wrong port), count"
vector 135 NetworkA.sensor2.udp droppedPkBadChecksum:vector(count) ETV
attr interpolationmode none
attr recordingmode vector(count)
attr source packetDropReasonIsIncorrectlyReceived(packetDropped)
attr title "packets dropped (checksum error), count"
vector 136 NetworkA.sensor2.app[0] packetReceived:vector(packetBytes) ETV
attr interpolationmode none
attr recordingmode vector(packetBytes)
attr source packetReceived
attr title "packets received, packetBytes"
vector 137 NetworkA.sensor2.app[0] throughput:vector ETV
attr recordingmode vector
attr source throughput(packetReceived)
attr title throughput
attr unit bps
vector 138 NetworkA.sensor2.app[0] packetSent:vector(packetBytes) ETV
attr interpolationmode none
attr recordingmode vector(packetBytes)
attr source packetSent
attr title "packets sent, packetBytes"
vector 139 NetworkA.sensor2.app[0] rcvdPkLifetime:vector ETV
attr interpolationmode none
attr recordingmode vector
attr source dataAge(packetReceived)
attr title "received packet lifetime"
attr unit s
vector 140 NetworkA.sensor2.app[0] rcvdPkSeqNo:vector ETV
attr interpolationmode none
attr recordingmode vector
attr source appPkSeqNo(packetReceived)
attr title "received packet sequence number"
vector 141 NetworkA.sensor3.energyStorage powerConsumption:vector ETV
attr interpolationmode sample-hold
attr recordingmode vector
attr source powerConsumptionChanged
attr title "Power consumption"
attr unit W
vector 142 NetworkA.sensor3.energyStorage powerGeneration:vector ETV
attr interpolationmode sample-hold
attr recordingmode vector
attr source powerGenerationChanged
attr title "Power generation"
attr unit W
vector 143 NetworkA.sensor3.energyStorage residualEnergyCapacity:vector ETV
attr interpolationmode linear
attr recordingmode vector
attr source residualEnergyCapacityChanged
attr title "Residual energy capacity"
attr unit J
vector 144 NetworkA.sensor3.lo[0].lo rcvdPkFromHl:vector(packetBytes) ETV
attr interpolationmode none
attr recordingmode vector(packetBytes)
attr source packetReceivedFromUpper
attr title "packets received from higher layer, packetBytes"
vector 145 NetworkA.sensor3.lo[0].lo passedUpPk:vector(packetBytes) ETV
attr interpolationmode none
attr recordingmode vector(packetBytes)
attr source packetSentToUpper
attr title "packets passed to higher layer, packetBytes"
vector 146 NetworkA.sensor3.lo[0] packetDropInterfaceDown:vector(packetBytes) ETV
attr interpolationmode none
attr recordingmode vector(packetBytes)
attr source packetDropReasonIsInterfaceDown(packetDropped)
attr title "packet drops: interface down, packetBytes"
vector 147 NetworkA.sensor3.lo[0] packetDropNoCarrier:vector(packetBytes) ETV
attr interpolationmode none
attr recordingmode vector(packetBytes)
attr source packetDropReasonIsNoCarrier(packetDropped)
attr title "packet drops: no carrier, packetBytes"
vector 148 NetworkA.sensor3.wlan[0].queue queueLength:vector ETV
attr autoWarmupFilter false
attr interpolationmode sample-hold
attr recordingmode vector
attr source "warmup(atomic(constant0(packetPushEnded) + count(packetPushStarted) - count(packetPulled) - count(packetRemoved) - count(packetDropped)))"
attr title "queue length"
attr unit pk
vector 149 NetworkA.sensor3.wlan[0].queue queueBitLength:vector ETV
attr autoWarmupFilter false
attr interpolationmode sample-hold
attr recordingmode vector
attr source "warmup(atomic(constant0(packetPushEnded) + sum(packetLength(packetPushStarted)) - sum(packetLength(packetPulled)) - sum(packetLength(packetRemoved)) - sum(packetLength(packetDropped))))"
attr title "queue bit length"
attr unit b
vector 150 NetworkA.sensor3.wlan[0].queue queueingTime:vector ETV
attr interpolationmode none
attr recordingmode vector
attr source queueingTime(packetPulled)
attr title "queueing times"
attr unit s
vector 151 NetworkA.sensor3.wlan[0].queue incomingPacketLengths:vector ETV
attr interpolationmode none
attr recordingmode vector
attr source packetLength(packetPushStarted)
attr title "incoming packet lengths"
attr unit b
vector 152 NetworkA.sensor3.wlan[0].queue incomingDataRate:vector ETV
attr interpolationmode linear
attr recordingmode vector
attr source throughput(packetPushStarted)
attr title "incoming datarate"
attr unit bps
vector 153 NetworkA.sensor3.wlan[0].queue outgoingPacketLengths:vector ETV
attr interpolationmode none
attr recordingmode vector
attr source packetLength(packetPulled)
attr title "outgoing packet lengths"
attr unit b
vector 154 NetworkA.sensor3.wlan[0].queue outgoingDataRate:vector ETV
attr interpolationmode linear
attr recordingmode vector
attr source throughput(packetPulled)
attr title "outgoing datarate"
attr unit bps
vector 155 NetworkA.sensor3.wlan[0].queue droppedPacketLengthsQueueOverflow:vector ETV
attr interpolationmode none
attr recordingmode vector
attr source packetLength(packetDropReasonIsQueueOverflow(packetDropped))
attr title "dropped packet lengths: queue overflow"
attr unit b
vector 156 NetworkA.sensor3.wlan[0].queue flowQueueingTime:vector ETV
attr interpolationmode none
attr recordingmode vector
attr source queueingTime(demuxFlow(packetPulled))
attr title "flow queueing times"
attr unit s
vector 157 NetworkA.sensor3.wlan[0].queue flowIncomingDataRate:vector ETV
attr interpolationmode linear
attr recordingmode vector
attr source throughput(flowPacketLength(demuxFlow(packetPushStarted)))
attr title "flow specific incoming data rate"
attr unit bps
vector 158 NetworkA.sensor3.wlan[0].queue flowOutgoingDataRate:vector ETV
attr interpolationmode linear
attr recordingmode vector
attr source throughput(flowPacketLength(demuxFlow(packetPulled)))
attr title "flow specific outgoing data rate"
attr unit bps
vector 159 NetworkA.sensor3.wlan[0].mac packetDropNotAddressToUs:vector(packetBytes) ETV
attr interpolationmode none
attr recordingmode vector(packetBytes)
attr source packetDropReasonIsNotAddressedToUs(packetDropped)
attr title "packet drop: not addressed to us, packetBytes"
vector 160 NetworkA.sensor3.wlan[0].mac packetDropIncorrectlyReceived:vector(packetBytes) ETV
attr interpolationmode none
attr recordingmode vector(packetBytes)
attr source packetDropReasonIsIncorrectlyReceived(packetDropped)
attr title "packet drop: incorrectly received, packetBytes"
vector 161 NetworkA.sensor3.wlan[0].mac packetDropQueueOverflow:vector(packetBytes) ETV
attr interpolationmode none
attr recordingmode vector(packetBytes)
attr source packetDropReasonIsQueueOverflow(packetDropped)
attr title "packet drop: queue overflow, packetBytes"
vector 162 NetworkA.sensor3.wlan[0].mac packetDropRetryLimitReached:vector(packetBytes) ETV
attr interpolationmode none
attr recordingmode vector(packetBytes)
attr source packetDropReasonIsRetryLimitReached(packetDropped)
attr title "packet drop: retry limit reached, packetBytes"
vector 163 NetworkA.sensor3.wlan[0].mac packetDropBackoffLimitReached:vector(packetBytes) ETV
attr interpolationmode none
attr recordingmode vector(packetBytes)
attr source packetDropReasonIsCongestion(packetDropped)
attr title "packet drop: backoff limit reached, packetBytes"
vector 164 NetworkA.sensor3.wlan[0].radio.energyConsumer rxPowerConsumptionVector:vector ETV
attr interpolationmode sample-hold
attr recordingmode vector
attr source rxPowerConsumption
attr title "RX Power consumption over time"
attr unit W
vector 165 NetworkA.sensor3.wlan[0].radio.energyConsumer txPowerConsumptionVector:vector ETV
attr interpolationmode sample-hold
attr recordingmode vector
attr source txPowerConsumption
attr title "TX Power consumption over time"
attr unit W
vector 166 NetworkA.sensor3.wlan[0].radio.energyConsumer sleepTimeVector:vector ETV
attr interpolationmode sample-hold
attr recordingmode vector
attr source sleepTime
attr title "Total sleep time over time"
attr unit s
vector 167 NetworkA.sensor3.wlan[0].radio radioMode:vector ETV
attr interpolationmode sample-hold
attr recordingmode vector
attr source radioModeChanged
attr title "Radio mode"
vector 168 NetworkA.sensor3.wlan[0].radio receptionState:vector ETV
attr interpolationmode sample-hold
attr recordingmode vector
attr source receptionStateChanged
attr title "Radio reception state"
vector 169 NetworkA.sensor3.wlan[0].radio transmissionState:vector ETV
attr interpolationmode sample-hold
attr recordingmode vector
attr source transmissionStateChanged
attr title "Radio transmission state"
vector 170 NetworkA.sensor3.wlan[0] packetDropInterfaceDown:vector(packetBytes) ETV
attr interpolationmode none
attr recordingmode vector(packetBytes)
attr source packetDropReasonIsInterfaceDown(packetDropped)
attr title "packet drops: interface down, packetBytes"
vector 171 NetworkA.sensor3.wlan[0] packetDropNoCarrier:vector(packetBytes) ETV
attr interpolationmode none
attr recordingmode vector(packetBytes)
attr source packetDropReasonIsNoCarrier(packetDropped)
attr title "packet drops: no carrier, packetBytes"
vector 172 NetworkA.sensor3.ipv4.ip packetDropAddressResolutionFailed:vector(packetBytes) ETV
attr interpolationmode none
attr recordingmode vector(packetBytes)
attr source packetDropReasonIsAddressResolutionFailed(packetDropped)
attr title "packet drop: address resolution failed, packetBytes"
vector 173 NetworkA.sensor3.ipv4.ip packetDropHopLimitReached:vector(packetBytes) ETV
attr interpolationmode none
attr recordingmode vector(packetBytes)
attr source packetDropReasonIsHopLimitReached(packetDropped)
attr title "packet drop: hop limit reached, packetBytes"
vector 174 NetworkA.sensor3.ipv4.ip packetDropForwardingDisabled:vector(packetBytes) ETV
attr interpolationmode none
attr recordingmode vector(packetBytes)
attr source packetDropReasonIsForwardingDisabled(packetDropped)
attr title "packet drop: forwarding disabled, packetBytes"
vector 175 NetworkA.sensor3.ipv4.ip packetDropNoInterfaceFound:vector(packetBytes) ETV
attr interpolationmode none
attr recordingmode vector(packetBytes)
attr source packetDropReasonIsNoInterfaceFound(packetDropped)
attr title "packet drop: no interface found, packetBytes"
vector 176 NetworkA.sensor3.ipv4.ip packetDropNoRouteFound:vector(packetBytes) ETV
attr interpolationmode none
attr recordingmode vector(packetBytes)
attr source packetDropReasonIsNoRouteFound(packetDropped)
attr title "packet drop: no route found, packetBytes"
vector 177 NetworkA.sensor3.ipv4.ip packetDropUndefined:vector(packetBytes) ETV
attr interpolationmode none
attr recordingmode vector(packetBytes)
attr source packetDropReasonIsUndefined(packetDropped)
attr title "packet drop: undefined, packetBytes"
vector 178 NetworkA.sensor3.udp packetSent:vector(packetBytes) ETV
attr interpolationmode none
attr recordingmode vector(packetBytes)
attr source packetSent
attr title "packets sent, packetBytes"
vector 179 NetworkA.sensor3.udp packetReceived:vector(packetBytes) ETV
attr interpolationmode none
attr recordingmode vector(packetBytes)
attr source packetReceived
attr title "packets received, packetBytes"
vector 180 NetworkA.sensor3.udp passedUpPk:vector(count) ETV
attr interpolationmode none
attr recordingmode vector(count)
attr source packetSentToUpper
attr title "packets passed up, count"
vector 181 NetworkA.sensor3.udp droppedPkWrongPort:vector(count) ETV
attr interpolationmode none
attr recordingmode vector(count)
attr source packetDropReasonIsNoPortFound(packetDropped)
attr title "packets dropped (wrong port), count"
vector 182 NetworkA.sensor3.udp droppedPkBadChecksum:vector(count) ETV
attr interpolationmode none
attr recordingmode vector(count)
attr source packetDropReasonIsIncorrectlyReceived(packetDropped)
attr title "packets dropped (checksum error), count"
vector 183 NetworkA.sensor3.app[0] packetReceived:vector(packetBytes) ETV
attr interpolationmode none
attr recordingmode vector(packetBytes)
attr source packetReceived
attr title "packets received, packetBytes"
vector 184 NetworkA.sensor3.app[0] throughput:vector ETV
attr recordingmode vector
attr source throughput(packetReceived)
attr title throughput
attr unit bps
vector 185 NetworkA.sensor3.app[0] packetSent:vector(packetBytes) ETV
attr interpolationmode none
attr recordingmode vector(packetBytes)
attr source packetSent
attr title "packets sent, packetBytes"
vector 186 NetworkA.sensor3.app[0] rcvdPkLifetime:vector ETV
attr interpolationmode none
attr recordingmode vector
attr source dataAge(packetReceived)
attr title "received packet lifetime"
attr unit s
vector 187 NetworkA.sensor3.app[0] rcvdPkSeqNo:vector ETV
attr interpolationmode none
attr recordingmode vector
attr source appPkSeqNo(packetReceived)
attr title "received packet sequence number"
vector 188 NetworkA.gateway.energyStorage powerConsumption:vector ETV
attr interpolationmode sample-hold
attr recordingmode vector
attr source powerConsumptionChanged
attr title "Power consumption"
attr unit W
vector 189 NetworkA.gateway.energyStorage powerGeneration:vector ETV
attr interpolationmode sample-hold
attr recordingmode vector
attr source powerGenerationChanged
attr title "Power generation"
attr unit W
vector 190 NetworkA.gateway.energyStorage residualEnergyCapacity:vector ETV
attr interpolationmode linear
attr recordingmode vector
attr source residualEnergyCapacityChanged
attr title "Residual energy capacity"
attr unit J
vector 191 NetworkA.gateway.ethernet encapPk:vector(packetBytes) ETV
attr interpolationmode none
attr recordingmode vector(packetBytes)
attr source encapPk
attr title "packets encapsulated, packetBytes"
vector 192 NetworkA.gateway.ethernet decapPk:vector(packetBytes) ETV
attr interpolationmode none
attr recordingmode vector(packetBytes)
attr source decapPk
attr title "packets decapsulated, packetBytes"
vector 193 NetworkA.gateway.ethernet pauseSent:vector ETV
attr recordingmode vector
attr title "pause sent"
vector 194 NetworkA.gateway.lo[0].lo rcvdPkFromHl:vector(packetBytes) ETV
attr interpolationmode none
attr recordingmode vector(packetBytes)
attr source packetReceivedFromUpper
attr title "packets received from higher layer, packetBytes"
vector 195 NetworkA.gateway.lo[0].lo passedUpPk:vector(packetBytes) ETV
attr interpolationmode none
attr recordingmode vector(packetBytes)
attr source packetSentToUpper
attr title "packets passed to higher layer, packetBytes"
vector 196 NetworkA.gateway.lo[0] packetDropInterfaceDown:vector(packetBytes) ETV
attr interpolationmode none
attr recordingmode vector(packetBytes)
attr source packetDropReasonIsInterfaceDown(packetDropped)
attr title "packet drops: interface down, packetBytes"
vector 197 NetworkA.gateway.lo[0] packetDropNoCarrier:vector(packetBytes) ETV
attr interpolationmode none
attr recordingmode vector(packetBytes)
attr source packetDropReasonIsNoCarrier(packetDropped)
attr title "packet drops: no carrier, packetBytes"
vector 198 NetworkA.gateway.wlan[0].queue queueLength:vector ETV
attr autoWarmupFilter false
attr interpolationmode sample-hold
attr recordingmode vector
attr source "warmup(atomic(constant0(packetPushEnded) + count(packetPushStarted) - count(packetPulled) - count(packetRemoved) - count(packetDropped)))"
attr title "queue length"
attr unit pk
vector 199 NetworkA.gateway.wlan[0].queue queueBitLength:vector ETV
attr autoWarmupFilter false
attr interpolationmode sample-hold
attr recordingmode vector
attr source "warmup(atomic(constant0(packetPushEnded) + sum(packetLength(packetPushStarted)) - sum(packetLength(packetPulled)) - sum(packetLength(packetRemoved)) - sum(packetLength(packetDropped))))"
attr title "queue bit length"
attr unit b
vector 200 NetworkA.gateway.wlan[0].queue queueingTime:vector ETV
attr interpolationmode none
attr recordingmode vector
attr source queueingTime(packetPulled)
attr title "queueing times"
attr unit s
vector 201 NetworkA.gateway.wlan[0].queue incomingPacketLengths:vector ETV
attr interpolationmode none
attr recordingmode vector
attr source packetLength(packetPushStarted)
attr title "incoming packet lengths"
attr unit b
vector 202 NetworkA.gateway.wlan[0].queue incomingDataRate:vector ETV
attr interpolationmode linear
attr recordingmode vector
attr source throughput(packetPushStarted)
attr title "incoming datarate"
attr unit bps
vector 203 NetworkA.gateway.wlan[0].queue outgoingPacketLengths:vector ETV
attr interpolationmode none
attr recordingmode vector
attr source packetLength(packetPulled)
attr title "outgoing packet lengths"
attr unit b
vector 204 NetworkA.gateway.wlan[0].queue outgoingDataRate:vector ETV
attr interpolationmode linear
attr recordingmode vector
attr source throughput(packetPulled)
attr title "outgoing datarate"
attr unit bps
vector 205 NetworkA.gateway.wlan[0].queue droppedPacketLengthsQueueOverflow:vector ETV
attr interpolationmode none
attr recordingmode vector
attr source packetLength(packetDropReasonIsQueueOverflow(packetDropped))
attr title "dropped packet lengths: queue overflow"
attr unit b
vector 206 NetworkA.gateway.wlan[0].queue flowQueueingTime:vector ETV
attr interpolationmode none
attr recordingmode vector
attr source queueingTime(demuxFlow(packetPulled))
attr title "flow queueing times"
attr unit s
vector 207 NetworkA.gateway.wlan[0].queue flowIncomingDataRate:vector ETV
attr interpolationmode linear
attr recordingmode vector
attr source throughput(flowPacketLength(demuxFlow(packetPushStarted)))
attr title "flow specific incoming data rate"
attr unit bps
vector 208 NetworkA.gateway.wlan[0].queue flowOutgoingDataRate:vector ETV
attr interpolationmode linear
attr recordingmode vector
attr source throughput(flowPacketLength(demuxFlow(packetPulled)))
attr title "flow specific outgoing data rate"
attr unit bps
vector 209 NetworkA.gateway.wlan[0].mac packetDropNotAddressToUs:vector(packetBytes) ETV
attr interpolationmode none
attr recordingmode vector(packetBytes)
attr source packetDropReasonIsNotAddressedToUs(packetDropped)
attr title "packet drop: not addressed to us, packetBytes"
vector 210 NetworkA.gateway.wlan[0].mac packetDropIncorrectlyReceived:vector(packetBytes) ETV
attr interpolationmode none
attr recordingmode vector(packetBytes)
attr source packetDropReasonIsIncorrectlyReceived(packetDropped)
attr title "packet drop: incorrectly received, packetBytes"
vector 211 NetworkA.gateway.wlan[0].mac packetDropQueueOverflow:vector(packetBytes) ETV
attr interpolationmode none
attr recordingmode vector(packetBytes)
attr source packetDropReasonIsQueueOverflow(packetDropped)
attr title "packet drop: queue overflow, packetBytes"
vector 212 NetworkA.gateway.wlan[0].mac packetDropRetryLimitReached:vector(packetBytes) ETV
attr interpolationmode none
attr recordingmode vector(packetBytes)
attr source packetDropReasonIsRetryLimitReached(packetDropped)
attr title "packet drop: retry limit reached, packetBytes"
vector 213 NetworkA.gateway.wlan[0].mac packetDropBackoffLimitReached:vector(packetBytes) ETV
attr interpolationmode none
attr recordingmode vector(packetBytes)
attr source packetDropReasonIsCongestion(packetDropped)
attr title "packet drop: backoff limit reached, packetBytes"
vector 214 NetworkA.gateway.wlan[0].radio.energyConsumer rxPowerConsumptionVector:vector ETV
attr interpolationmode sample-hold
attr recordingmode vector
attr source rxPowerConsumption
attr title "RX Power consumption over time"
attr unit W
vector 215 NetworkA.gateway.wlan[0].radio.energyConsumer txPowerConsumptionVector:vector ETV
attr interpolationmode sample-hold
attr recordingmode vector
attr source txPowerConsumption
attr title "TX Power consumption over time"
attr unit W
vector 216 NetworkA.gateway.wlan[0].radio.energyConsumer sleepTimeVector:vector ETV
attr interpolationmode sample-hold
attr recordingmode vector
attr source sleepTime
attr title "Total sleep time over time"
attr unit s
vector 217 NetworkA.gateway.wlan[0].radio radioMode:vector ETV
attr interpolationmode sample-hold
attr recordingmode vector
attr source radioModeChanged
attr title "Radio mode"
vector 218 NetworkA.gateway.wlan[0].radio receptionState:vector ETV
attr interpolationmode sample-hold
attr recordingmode vector
attr source receptionStateChanged
attr title "Radio reception state"
vector 219 NetworkA.gateway.wlan[0].radio transmissionState:vector ETV
attr interpolationmode sample-hold
attr recordingmode vector
attr source transmissionStateChanged
attr title "Radio transmission state"
vector 220 NetworkA.gateway.wlan[0] packetDropInterfaceDown:vector(packetBytes) ETV
attr interpolationmode none
attr recordingmode vector(packetBytes)
attr source packetDropReasonIsInterfaceDown(packetDropped)
attr title "packet drops: interface down, packetBytes"
vector 221 NetworkA.gateway.wlan[0] packetDropNoCarrier:vector(packetBytes) ETV
attr interpolationmode none
attr recordingmode vector(packetBytes)
attr source packetDropReasonIsNoCarrier(packetDropped)
attr title "packet drops: no carrier, packetBytes"
vector 222 NetworkA.gateway.eth[0].queue queueLength:vector ETV
attr autoWarmupFilter false
attr interpolationmode sample-hold
attr recordingmode vector
attr source "warmup(atomic(constant0(packetPushEnded) + count(packetPushStarted) - count(packetPulled) - count(packetRemoved) - count(packetDropped)))"
attr title "queue length"
attr unit pk
vector 223 NetworkA.gateway.eth[0].queue queueBitLength:vector ETV
attr autoWarmupFilter false
attr interpolationmode sample-hold
attr recordingmode vector
attr source "warmup(atomic(constant0(packetPushEnded) + sum(packetLength(packetPushStarted)) - sum(packetLength(packetPulled)) - sum(packetLength(packetRemoved)) - sum(packetLength(packetDropped))))"
attr title "queue bit length"
attr unit b
vector 224 NetworkA.gateway.eth[0].queue queueingTime:vector ETV
attr interpolationmode none
attr recordingmode vector
attr source queueingTime(packetPulled)
attr title "queueing times"
attr unit s
vector 225 NetworkA.gateway.eth[0].queue incomingPacketLengths:vector ETV
attr interpolationmode none
attr recordingmode vector
attr source packetLength(packetPushStarted)
attr title "incoming packet lengths"
attr unit b
vector 226 NetworkA.gateway.eth[0].queue incomingDataRate:vector ETV
attr interpolationmode linear
attr recordingmode vector
attr source throughput(packetPushStarted)
attr title "incoming datarate"
attr unit bps
vector 227 NetworkA.gateway.eth[0].queue outgoingPacketLengths:vector ETV
attr interpolationmode none
attr recordingmode vector
attr source packetLength(packetPulled)
attr title "outgoing packet lengths"
attr unit b
vector 228 NetworkA.gateway.eth[0].queue outgoingDataRate:vector ETV
attr interpolationmode linear
attr recordingmode vector
attr source throughput(packetPulled)
attr title "outgoing datarate"
attr unit bps
vector 229 NetworkA.gateway.eth[0].queue droppedPacketLengthsQueueOverflow:vector ETV
attr interpolationmode none
attr recordingmode vector
attr source packetLength(packetDropReasonIsQueueOverflow(packetDropped))
attr title "dropped packet lengths: queue overflow"
attr unit b
vector 230 NetworkA.gateway.eth[0].queue flowQueueingTime:vector ETV
attr interpolationmode none
attr recordingmode vector
attr source queueingTime(demuxFlow(packetPulled))
attr title "flow queueing times"
attr unit s
vector 231 NetworkA.gateway.eth[0].queue flowIncomingDataRate:vector ETV
attr interpolationmode linear
attr recordingmode vector
attr source throughput(flowPacketLength(demuxFlow(packetPushStarted)))
attr title "flow specific incoming data rate"
attr unit bps
vector 232 NetworkA.gateway.eth[0].queue flowOutgoingDataRate:vector ETV
attr interpolationmode linear
attr recordingmode vector
attr source throughput(flowPacketLength(demuxFlow(packetPulled)))
attr title "flow specific outgoing data rate"
attr unit bps
vector 233 NetworkA.gateway.eth[0].mac txPk:vector(packetBytes) ETV
attr interpolationmode none
attr recordingmode vector(packetBytes)
attr source packetSentToLower
attr title "packets transmitted, packetBytes"
vector 234 NetworkA.gateway.eth[0].mac rxPkOk:vector(packetBytes) ETV
attr interpolationmode none
attr recordingmode vector(packetBytes)
attr source rxPkOk
attr title "packets received OK, packetBytes"
vector 235 NetworkA.gateway.eth[0].mac passedUpPk:vector(packetBytes) ETV
attr interpolationmode none
attr recordingmode vector(packetBytes)
attr source packetSentToUpper
attr title "packets passed to higher layer, packetBytes"
vector 236 NetworkA.gateway.eth[0].mac txPausePkUnits:vector ETV
attr interpolationmode none
attr recordingmode vector
attr title "pause units sent"
vector 237 NetworkA.gateway.eth[0].mac rxPausePkUnits:vector ETV
attr interpolationmode none
attr recordingmode vector
attr title "pause units received"
vector 238 NetworkA.gateway.eth[0].mac packetReceivedFromUpper:vector(packetBytes) ETV
attr interpolationmode none
attr recordingmode vector(packetBytes)
attr source packetReceivedFromUpper
attr title "packet bytes from higher layer, packetBytes"
vector 239 NetworkA.gateway.eth[0].mac packetDropIncorrectlyReceived:vector(packetBytes) ETV
attr interpolationmode none
attr recordingmode vector(packetBytes)
attr source packetDropReasonIsIncorrectlyReceived(packetDropped)
attr title "packet drop: incorrectly received, packetBytes"
vector 240 NetworkA.gateway.eth[0].mac packetDropInterfaceDown:vector(packetBytes) ETV
attr interpolationmode none
attr recordingmode vector(packetBytes)
attr source packetDropReasonIsInterfaceDown(packetDropped)
attr title "packet drop: interface down, packetBytes"
vector 241 NetworkA.gateway.eth[0].mac packetDropNotAddressedToUs:vector(packetBytes) ETV
attr interpolationmode none
attr recordingmode vector(packetBytes)
attr source packetDropReasonIsNotAddressedToUs(packetDropped)
attr title "packet drop: not addressed to us, packetBytes"
vector 242 NetworkA.gateway.eth[0] packetDropInterfaceDown:vector(packetBytes) ETV
attr interpolationmode none
attr recordingmode vector(packetBytes)
attr source packetDropReasonIsInterfaceDown(packetDropped)
attr title "packet drops: interface down, packetBytes"
vector 243 NetworkA.gateway.eth[0] packetDropNoCarrier:vector(packetBytes) ETV
attr interpolationmode none
attr recordingmode vector(packetBytes)
attr source packetDropReasonIsNoCarrier(packetDropped)
attr title "packet drops: no carrier, packetBytes"
vector 244 NetworkA.gateway.ipv4.ip packetDropAddressResolutionFailed:vector(packetBytes) ETV
attr interpolationmode none
attr recordingmode vector(packetBytes)
attr source packetDropReasonIsAddressResolutionFailed(packetDropped)
attr title "packet drop: address resolution failed, packetBytes"
vector 245 NetworkA.gateway.ipv4.ip packetDropHopLimitReached:vector(packetBytes) ETV
attr interpolationmode none
attr recordingmode vector(packetBytes)
attr source packetDropReasonIsHopLimitReached(packetDropped)
attr title "packet drop: hop limit reached, packetBytes"
vector 246 NetworkA.gateway.ipv4.ip packetDropForwardingDisabled:vector(packetBytes) ETV
attr interpolationmode none
attr recordingmode vector(packetBytes)
attr source packetDropReasonIsForwardingDisabled(packetDropped)
attr title "packet drop: forwarding disabled, packetBytes"
vector 247 NetworkA.gateway.ipv4.ip packetDropNoInterfaceFound:vector(packetBytes) ETV
attr interpolationmode none
attr recordingmode vector(packetBytes)
attr source packetDropReasonIsNoInterfaceFound(packetDropped)
attr title "packet drop: no interface found, packetBytes"
vector 248 NetworkA.gateway.ipv4.ip packetDropNoRouteFound:vector(packetBytes) ETV
attr interpolationmode none
attr recordingmode vector(packetBytes)
attr source packetDropReasonIsNoRouteFound(packetDropped)
attr title "packet drop: no route found, packetBytes"
vector 249 NetworkA.gateway.ipv4.ip packetDropUndefined:vector(packetBytes) ETV
attr interpolationmode none
attr recordingmode vector(packetBytes)
attr source packetDropReasonIsUndefined(packetDropped)
attr title "packet drop: undefined, packetBytes"
vector 250 NetworkA.gateway.udp packetSent:vector(packetBytes) ETV
attr interpolationmode none
attr recordingmode vector(packetBytes)
attr source packetSent
attr title "packets sent, packetBytes"
vector 251 NetworkA.gateway.udp packetReceived:vector(packetBytes) ETV
attr interpolationmode none
attr recordingmode vector(packetBytes)
attr source packetReceived
attr title "packets received, packetBytes"
vector 252 NetworkA.gateway.udp passedUpPk:vector(count) ETV
attr interpolationmode none
attr recordingmode vector(count)
attr source packetSentToUpper
attr title "packets passed up, count"
vector 253 NetworkA.gateway.udp droppedPkWrongPort:vector(count) ETV
attr interpolationmode none
attr recordingmode vector(count)
attr source packetDropReasonIsNoPortFound(packetDropped)
attr title "packets dropped (wrong port), count"
vector 254 NetworkA.gateway.udp droppedPkBadChecksum:vector(count) ETV
attr interpolationmode none
attr recordingmode vector(count)
attr source packetDropReasonIsIncorrectlyReceived(packetDropped)
attr title "packets dropped (checksum error), count"
vector 255 NetworkA.gateway.app[0] packetReceived:vector(packetBytes) ETV
attr interpolationmode none
attr recordingmode vector(packetBytes)
attr source packetReceived
attr title "packets received, packetBytes"
vector 256 NetworkA.gateway.app[0] throughput:vector ETV
attr recordingmode vector
attr source throughput(packetReceived)
attr title throughput
attr unit bps
vector 257 NetworkA.gateway.app[0] endToEndDelay:vector ETV
attr interpolationmode none
attr recordingmode vector
attr source dataAge(packetReceived)
attr title "end-to-end delay"
attr unit s
vector 258 NetworkA.gateway.app[0] rcvdPkSeqNo:vector ETV
attr interpolationmode none
attr recordingmode vector
attr source appPkSeqNo(packetReceived)
attr title "received packet sequence number"
vector 259 NetworkA.server.ethernet encapPk:vector(packetBytes) ETV
attr interpolationmode none
attr recordingmode vector(packetBytes)
attr source encapPk
attr title "packets encapsulated, packetBytes"
vector 260 NetworkA.server.ethernet decapPk:vector(packetBytes) ETV
attr interpolationmode none
attr recordingmode vector(packetBytes)
attr source decapPk
attr title "packets decapsulated, packetBytes"
vector 261 NetworkA.server.ethernet pauseSent:vector ETV
attr recordingmode vector
attr title "pause sent"
vector 262 NetworkA.server.lo[0].lo rcvdPkFromHl:vector(packetBytes) ETV
attr interpolationmode none
attr recordingmode vector(packetBytes)
attr source packetReceivedFromUpper
attr title "packets received from higher layer, packetBytes"
vector 263 NetworkA.server.lo[0].lo passedUpPk:vector(packetBytes) ETV
attr interpolationmode none
attr recordingmode vector(packetBytes)
attr source packetSentToUpper
attr title "packets passed to higher layer, packetBytes"
vector 264 NetworkA.server.lo[0] packetDropInterfaceDown:vector(packetBytes) ETV
attr interpolationmode none
attr recordingmode vector(packetBytes)
attr source packetDropReasonIsInterfaceDown(packetDropped)
attr title "packet drops: interface down, packetBytes"
vector 265 NetworkA.server.lo[0] packetDropNoCarrier:vector(packetBytes) ETV
attr interpolationmode none
attr recordingmode vector(packetBytes)
attr source packetDropReasonIsNoCarrier(packetDropped)
attr title "packet drops: no carrier, packetBytes"
vector 266 NetworkA.server.eth[0].queue queueLength:vector ETV
attr autoWarmupFilter false
attr interpolationmode sample-hold
attr recordingmode vector
attr source "warmup(atomic(constant0(packetPushEnded) + count(packetPushStarted) - count(packetPulled) - count(packetRemoved) - count(packetDropped)))"
attr title "queue length"
attr unit pk
vector 267 NetworkA.server.eth[0].queue queueBitLength:vector ETV
attr autoWarmupFilter false
attr interpolationmode sample-hold
attr recordingmode vector
attr source "warmup(atomic(constant0(packetPushEnded) + sum(packetLength(packetPushStarted)) - sum(packetLength(packetPulled)) - sum(packetLength(packetRemoved)) - sum(packetLength(packetDropped))))"
attr title "queue bit length"
attr unit b
vector 268 NetworkA.server.eth[0].queue queueingTime:vector ETV
attr interpolationmode none
attr recordingmode vector
attr source queueingTime(packetPulled)
attr title "queueing times"
attr unit s
vector 269 NetworkA.server.eth[0].queue incomingPacketLengths:vector ETV
attr interpolationmode none
attr recordingmode vector
attr source packetLength(packetPushStarted)
attr title "incoming packet lengths"
attr unit b
vector 270 NetworkA.server.eth[0].queue incomingDataRate:vector ETV
attr interpolationmode linear
attr recordingmode vector
attr source throughput(packetPushStarted)
attr title "incoming datarate"
attr unit bps
vector 271 NetworkA.server.eth[0].queue outgoingPacketLengths:vector ETV
attr interpolationmode none
attr recordingmode vector
attr source packetLength(packetPulled)
attr title "outgoing packet lengths"
attr unit b
vector 272 NetworkA.server.eth[0].queue outgoingDataRate:vector ETV
attr interpolationmode linear
attr recordingmode vector
attr source throughput(packetPulled)
attr title "outgoing datarate"
attr unit bps
vector 273 NetworkA.server.eth[0].queue droppedPacketLengthsQueueOverflow:vector ETV
attr interpolationmode none
attr recordingmode vector
attr source packetLength(packetDropReasonIsQueueOverflow(packetDropped))
attr title "dropped packet lengths: queue overflow"
attr unit b
vector 274 NetworkA.server.eth[0].queue flowQueueingTime:vector ETV
attr interpolationmode none
attr recordingmode vector
attr source queueingTime(demuxFlow(packetPulled))
attr title "flow queueing times"
attr unit s
vector 275 NetworkA.server.eth[0].queue flowIncomingDataRate:vector ETV
attr interpolationmode linear
attr recordingmode vector
attr source throughput(flowPacketLength(demuxFlow(packetPushStarted)))
attr title "flow specific incoming data rate"
attr unit bps
vector 276 NetworkA.server.eth[0].queue flowOutgoingDataRate:vector ETV
attr interpolationmode linear
attr recordingmode vector
attr source throughput(flowPacketLength(demuxFlow(packetPulled)))
attr title "flow specific outgoing data rate"
attr unit bps
vector 277 NetworkA.server.eth[0].mac txPk:vector(packetBytes) ETV
attr interpolationmode none
attr recordingmode vector(packetBytes)
attr source packetSentToLower
attr title "packets transmitted, packetBytes"
vector 278 NetworkA.server.eth[0].mac rxPkOk:vector(packetBytes) ETV
attr interpolationmode none
attr recordingmode vector(packetBytes)
attr source rxPkOk
attr title "packets received OK, packetBytes"
vector 279 NetworkA.server.eth[0].mac passedUpPk:vector(packetBytes) ETV
attr interpolationmode none
attr recordingmode vector(packetBytes)
attr source packetSentToUpper
attr title "packets passed to higher layer, packetBytes"
vector 280 NetworkA.server.eth[0].mac txPausePkUnits:vector ETV
attr interpolationmode none
attr recordingmode vector
attr title "pause units sent"
vector 281 NetworkA.server.eth[0].mac rxPausePkUnits:vector ETV
attr interpolationmode none
attr recordingmode vector
attr title "pause units received"
vector 282 NetworkA.server.eth[0].mac packetReceivedFromUpper:vector(packetBytes) ETV
attr interpolationmode none
attr recordingmode vector(packetBytes)
attr source packetReceivedFromUpper
attr title "packet bytes from higher layer, packetBytes"
vector 283 NetworkA.server.eth[0].mac packetDropIncorrectlyReceived:vector(packetBytes) ETV
attr interpolationmode none
attr recordingmode vector(packetBytes)
attr source packetDropReasonIsIncorrectlyReceived(packetDropped)
attr title "packet drop: incorrectly received, packetBytes"
vector 284 NetworkA.server.eth[0].mac packetDropInterfaceDown:vector(packetBytes) ETV
attr interpolationmode none
attr recordingmode vector(packetBytes)
attr source packetDropReasonIsInterfaceDown(packetDropped)
attr title "packet drop: interface down, packetBytes"
vector 285 NetworkA.server.eth[0].mac packetDropNotAddressedToUs:vector(packetBytes) ETV
attr interpolationmode none
attr recordingmode vector(packetBytes)
attr source packetDropReasonIsNotAddressedToUs(packetDropped)
attr title "packet drop: not addressed to us, packetBytes"
vector 286 NetworkA.server.eth[0] packetDropInterfaceDown:vector(packetBytes) ETV
attr interpolationmode none
attr recordingmode vector(packetBytes)
attr source packetDropReasonIsInterfaceDown(packetDropped)
attr title "packet drops: interface down, packetBytes"
vector 287 NetworkA.server.eth[0] packetDropNoCarrier:vector(packetBytes) ETV
attr interpolationmode none
attr recordingmode vector(packetBytes)
attr source packetDropReasonIsNoCarrier(packetDropped)
attr title "packet drops: no carrier, packetBytes"
vector 288 NetworkA.server.ipv4.ip packetDropAddressResolutionFailed:vector(packetBytes) ETV
attr interpolationmode none
attr recordingmode vector(packetBytes)
attr source packetDropReasonIsAddressResolutionFailed(packetDropped)
attr title "packet drop: address resolution failed, packetBytes"
vector 289 NetworkA.server.ipv4.ip packetDropHopLimitReached:vector(packetBytes) ETV
attr interpolationmode none
attr recordingmode vector(packetBytes)
attr source packetDropReasonIsHopLimitReached(packetDropped)
attr title "packet drop: hop limit reached, packetBytes"
vector 290 NetworkA.server.ipv4.ip packetDropForwardingDisabled:vector(packetBytes) ETV
attr interpolationmode none
attr recordingmode vector(packetBytes)
attr source packetDropReasonIsForwardingDisabled(packetDropped)
attr title "packet drop: forwarding disabled, packetBytes"
vector 291 NetworkA.server.ipv4.ip packetDropNoInterfaceFound:vector(packetBytes) ETV
attr interpolationmode none
attr recordingmode vector(packetBytes)
attr source packetDropReasonIsNoInterfaceFound(packetDropped)
attr title "packet drop: no interface found, packetBytes"
vector 292 NetworkA.server.ipv4.ip packetDropNoRouteFound:vector(packetBytes) ETV
attr interpolationmode none
attr recordingmode vector(packetBytes)
attr source packetDropReasonIsNoRouteFound(packetDropped)
attr title "packet drop: no route found, packetBytes"
vector 293 NetworkA.server.ipv4.ip packetDropUndefined:vector(packetBytes) ETV
attr interpolationmode none
attr recordingmode vector(packetBytes)
attr source packetDropReasonIsUndefined(packetDropped)
attr title "packet drop: undefined, packetBytes"
vector 294 NetworkA.server.udp packetSent:vector(packetBytes) ETV
attr interpolationmode none
attr recordingmode vector(packetBytes)
attr source packetSent
attr title "packets sent, packetBytes"
vector 295 NetworkA.server.udp packetReceived:vector(packetBytes) ETV
attr interpolationmode none
attr recordingmode vector(packetBytes)
attr source packetReceived
attr title "packets received, packetBytes"
vector 296 NetworkA.server.udp passedUpPk:vector(count) ETV
attr interpolationmode none
attr recordingmode vector(count)
attr source packetSentToUpper
attr title "packets passed up, count"
vector 297 NetworkA.server.udp droppedPkWrongPort:vector(count) ETV
attr interpolationmode none
attr recordingmode vector(count)
attr source packetDropReasonIsNoPortFound(packetDropped)
attr title "packets dropped (wrong port), count"
vector 298 NetworkA.server.udp droppedPkBadChecksum:vector(count) ETV
attr interpolationmode none
attr recordingmode vector(count)
attr source packetDropReasonIsIncorrectlyReceived(packetDropped)
attr title "packets dropped (checksum error), count"
vector 299 NetworkA.server.app[0] packetReceived:vector(packetBytes) ETV
attr interpolationmode none
attr recordingmode vector(packetBytes)
attr source packetReceived
attr title "packets received, packetBytes"
vector 300 NetworkA.server.app[0] throughput:vector ETV
attr recordingmode vector
attr source throughput(packetReceived)
attr title throughput
attr unit bps
vector 301 NetworkA.server.app[0] endToEndDelay:vector ETV
attr interpolationmode none
attr recordingmode vector
attr source dataAge(packetReceived)
attr title "end-to-end delay"
attr unit s
vector 302 NetworkA.server.app[0] rcvdPkSeqNo:vector ETV
attr interpolationmode none
attr recordingmode vector
attr source appPkSeqNo(packetReceived)
attr title "received packet sequence number"
vector 303 NetworkA.maliciousNode.lo[0].lo rcvdPkFromHl:vector(packetBytes) ETV
attr interpolationmode none
attr recordingmode vector(packetBytes)
attr source packetReceivedFromUpper
attr title "packets received from higher layer, packetBytes"
vector 304 NetworkA.maliciousNode.lo[0].lo passedUpPk:vector(packetBytes) ETV
attr interpolationmode none
attr recordingmode vector(packetBytes)
attr source packetSentToUpper
attr title "packets passed to higher layer, packetBytes"
vector 305 NetworkA.maliciousNode.lo[0] packetDropInterfaceDown:vector(packetBytes) ETV
attr interpolationmode none
attr recordingmode vector(packetBytes)
attr source packetDropReasonIsInterfaceDown(packetDropped)
attr title "packet drops: interface down, packetBytes"
vector 306 NetworkA.maliciousNode.lo[0] packetDropNoCarrier:vector(packetBytes) ETV
attr interpolationmode none
attr recordingmode vector(packetBytes)
attr source packetDropReasonIsNoCarrier(packetDropped)
attr title "packet drops: no carrier, packetBytes"
vector 307 NetworkA.maliciousNode.wlan[0].queue queueLength:vector ETV
attr autoWarmupFilter false
attr interpolationmode sample-hold
attr recordingmode vector
attr source "warmup(atomic(constant0(packetPushEnded) + count(packetPushStarted) - count(packetPulled) - count(packetRemoved) - count(packetDropped)))"
attr title "queue length"
attr unit pk
vector 308 NetworkA.maliciousNode.wlan[0].queue queueBitLength:vector ETV
attr autoWarmupFilter false
attr interpolationmode sample-hold
attr recordingmode vector
attr source "warmup(atomic(constant0(packetPushEnded) + sum(packetLength(packetPushStarted)) - sum(packetLength(packetPulled)) - sum(packetLength(packetRemoved)) - sum(packetLength(packetDropped))))"
attr title "queue bit length"
attr unit b
vector 309 NetworkA.maliciousNode.wlan[0].queue queueingTime:vector ETV
attr interpolationmode none
attr recordingmode vector
attr source queueingTime(packetPulled)
attr title "queueing times"
attr unit s
vector 310 NetworkA.maliciousNode.wlan[0].queue incomingPacketLengths:vector ETV
attr interpolationmode none
attr recordingmode vector
attr source packetLength(packetPushStarted)
attr title "incoming packet lengths"
attr unit b
vector 311 NetworkA.maliciousNode.wlan[0].queue incomingDataRate:vector ETV
attr interpolationmode linear
attr recordingmode vector
attr source throughput(packetPushStarted)
attr title "incoming datarate"
attr unit bps
vector 312 NetworkA.maliciousNode.wlan[0].queue outgoingPacketLengths:vector ETV
attr interpolationmode none
attr recordingmode vector
attr source packetLength(packetPulled)
attr title "outgoing packet lengths"
attr unit b
vector 313 NetworkA.maliciousNode.wlan[0].queue outgoingDataRate:vector ETV
attr interpolationmode linear
attr recordingmode vector
attr source throughput(packetPulled)
attr title "outgoing datarate"
attr unit bps
vector 314 NetworkA.maliciousNode.wlan[0].queue droppedPacketLengthsQueueOverflow:vector ETV
attr interpolationmode none
attr recordingmode vector
attr source packetLength(packetDropReasonIsQueueOverflow(packetDropped))
attr title "dropped packet lengths: queue overflow"
attr unit b
vector 315 NetworkA.maliciousNode.wlan[0].queue flowQueueingTime:vector ETV
attr interpolationmode none
attr recordingmode vector
attr source queueingTime(demuxFlow(packetPulled))
attr title "flow queueing times"
attr unit s
vector 316 NetworkA.maliciousNode.wlan[0].queue flowIncomingDataRate:vector ETV
attr interpolationmode linear
attr recordingmode vector
attr source throughput(flowPacketLength(demuxFlow(packetPushStarted)))
attr title "flow specific incoming data rate"
attr unit bps
vector 317 NetworkA.maliciousNode.wlan[0].queue flowOutgoingDataRate:vector ETV
attr interpolationmode linear
attr recordingmode vector
attr source throughput(flowPacketLength(demuxFlow(packetPulled)))
attr title "flow specific outgoing data rate"
attr unit bps
vector 318 NetworkA.maliciousNode.wlan[0].mac packetDropNotAddressToUs:vector(packetBytes) ETV
attr interpolationmode none
attr recordingmode vector(packetBytes)
attr source packetDropReasonIsNotAddressedToUs(packetDropped)
attr title "packet drop: not addressed to us, packetBytes"
vector 319 NetworkA.maliciousNode.wlan[0].mac packetDropIncorrectlyReceived:vector(packetBytes) ETV
attr interpolationmode none
attr recordingmode vector(packetBytes)
attr source packetDropReasonIsIncorrectlyReceived(packetDropped)
attr title "packet drop: incorrectly received, packetBytes"
vector 320 NetworkA.maliciousNode.wlan[0].mac packetDropQueueOverflow:vector(packetBytes) ETV
attr interpolationmode none
attr recordingmode vector(packetBytes)
attr source packetDropReasonIsQueueOverflow(packetDropped)
attr title "packet drop: queue overflow, packetBytes"
vector 321 NetworkA.maliciousNode.wlan[0].mac packetDropRetryLimitReached:vector(packetBytes) ETV
attr interpolationmode none
attr recordingmode vector(packetBytes)
attr source packetDropReasonIsRetryLimitReached(packetDropped)
attr title "packet drop: retry limit reached, packetBytes"
[...]
340	23871	44.7	0
340	23871	44.8	0
340	23871	44.9	0
340	23871	45	0
340	23871	45.1	0
340	23871	45.2	0
340	23871	45.3	0
340	23871	45.4	0
340	23871	45.5	0
340	23871	45.6	0
340	23871	45.7	0
340	23871	45.8	0
340	23871	45.9	0
340	23871	46	0
340	23871	46.1	0
340	23871	46.2	0
340	23871	46.3	0
340	23871	46.4	0
340	23871	46.5	0
340	23871	46.6	0
340	23871	46.7	0
340	23871	46.8	0
340	23871	46.9	0
340	23871	47	0
340	23871	47.1	0
340	23871	47.2	0
340	23871	47.3	0
340	23871	47.4	0
340	23871	47.5	0
340	23871	47.6	0
340	23871	47.7	0
340	23871	47.8	0
340	23871	47.9	0
340	23871	48	0
340	23871	48.1	0
340	23871	48.2	0
340	23871	48.3	0
340	23871	48.4	0
340	23871	48.5	0
340	23871	48.6	0
340	23871	48.7	0
340	23871	48.8	0
340	23871	48.9	0
340	23871	49	0
340	23871	49.1	0
340	23871	49.2	0
340	23871	49.3	0
340	23871	49.4	0
340	23871	49.5	0
340	23871	49.6	0
340	23871	49.7	0
340	23871	49.8	0
340	23871	49.9	0
340	23871	50	0
340	23871	50.1	0
340	23871	50.2	0
340	23871	50.3	0
340	23871	50.4	0
340	23871	50.5	0
340	23871	50.6	0
340	23871	50.7	0
340	23871	50.8	0
340	23871	50.9	0
340	23871	51	0
340	23871	51.1	0
340	23871	51.2	0
340	23871	51.3	0
340	23871	51.4	0
340	23871	51.5	0
340	23871	51.6	0
340	23871	51.7	0
340	23871	51.8	0
340	23871	51.9	0
340	23871	52	0
340	23871	52.1	0
340	23871	52.2	0
340	23871	52.3	0
340	23871	52.4	0
340	23871	52.5	0
340	23871	52.6	0
340	23871	52.7	0
340	23871	52.8	0
340	23871	52.9	0
340	23871	53	0
340	23871	53.1	0
340	23871	53.2	0
340	23871	53.3	0
340	23871	53.4	0
340	23871	53.5	0
340	23871	53.6	0
340	23871	53.7	0
340	23871	53.8	0
340	23871	53.9	0
340	23871	54	0
340	23871	54.1	0
340	23871	54.2	0
340	23871	54.3	0
340	23871	54.4	0
340	23871	54.5	0
340	23871	54.6	0
340	23871	54.7	0
340	23871	54.8	0
340	23871	54.9	0
340	23871	55	0
340	23871	55.1	0
340	23871	55.2	0
340	23871	55.3	0
340	23871	55.4	0
340	23871	55.5	0
340	23871	55.6	0
340	23871	55.7	0
340	23871	55.8	0
340	23871	55.9	0
340	23871	56	0
340	23871	56.1	0
340	23871	56.2	0
340	23871	56.3	0
340	23871	56.4	0
340	23871	56.5	0
340	23871	56.6	0
340	23871	56.7	0
340	23871	56.8	0
340	23871	56.9	0
340	23871	57	0
340	23871	57.1	0
340	23871	57.2	0
340	23871	57.3	0
340	23871	57.4	0
340	23871	57.5	0
340	23871	57.6	0
340	23871	57.7	0
340	23871	57.8	0
340	23871	57.9	0
340	23871	58	0
340	23871	58.1	0
340	23871	58.2	0
340	23871	58.3	0
340	23871	58.4	0
340	23871	58.5	0
340	23871	58.6	0
340	23871	58.7	0
340	23871	58.8	0
340	23871	58.9	0
340	23871	59	0
340	23871	59.1	0
340	23871	59.2	0
340	23871	59.3	0
340	23871	59.4	0
340	23871	59.5	0
340	23871	59.6	0
340	23871	59.7	0
340	23871	59.8	0
340	23871	59.9	0
340	23871	60	0
340	23871	60.1	0
340	23871	60.2	0
340	23871	60.3	0
340	23871	60.4	0
340	23871	60.5	0
340	23871	60.6	0
340	23871	60.7	0
340	23871	60.8	0
340	23871	60.9	0
340	23871	61	0
340	23871	61.1	0
340	23871	61.2	0
340	23871	61.3	0
340	23871	61.4	0
340	23871	61.5	0
340	23871	61.6	0
340	23871	61.7	0
340	23871	61.8	0
340	23871	61.9	0
340	23871	62	0
340	23871	62.1	0
340	23871	62.2	0
340	23871	62.3	0
340	23871	62.4	0
340	23871	62.5	0
340	23871	62.6	0
340	23871	62.7	0
340	23871	62.8	0
340	23871	62.9	0
340	23871	63	0
340	23871	63.1	0
340	23871	63.2	0
340	23871	63.3	0
340	23871	63.4	0
340	23871	63.5	0
340	23871	63.6	0
340	23871	63.7	0
340	23871	63.8	0
340	23871	63.9	0
340	23871	64	0
340	23871	64.1	0
340	23871	64.2	0
340	23871	64.3	0
340	23871	64.4	0
340	23871	64.5	0
340	23871	64.6	0
340	23871	64.7	0
340	23871	64.8	0
340	23871	64.9	0
340	23871	65	0
340	23871	65.1	0
340	23871	65.2	0
340	23871	65.3	0
340	23871	65.4	0
340	23871	65.5	0
340	23871	65.6	0
340	23871	65.7	0
340	23871	65.8	0
340	23871	65.9	0
340	23871	66	0
340	23871	66.1	0
340	23871	66.2	0
340	23871	66.3	0
340	23871	66.4	0
340	23871	66.5	0
340	23871	66.6	0
340	23871	66.7	0
340	23871	66.8	0
340	23871	66.9	0
340	23871	67	0
340	23871	67.1	0
340	23871	67.2	0
340	23871	67.3	0
340	23871	67.4	0
340	23871	67.5	0
340	23871	67.6	0
340	23871	67.7	0
340	23871	67.8	0
340	23871	67.9	0
340	23871	68	0
340	23871	68.1	0
340	23871	68.2	0
340	23871	68.3	0
340	23871	68.4	0
340	23871	68.5	0
340	23871	68.6	0
340	23871	68.7	0
340	23871	68.8	0
340	23871	68.9	0
340	23871	69	0
340	23871	69.1	0
340	23871	69.2	0
340	23871	69.3	0
340	23871	69.4	0
340	23871	69.5	0
340	23871	69.6	0
340	23871	69.7	0
340	23871	69.8	0
340	23871	69.9	0
340	23871	70	0
340	23871	70.1	0
340	23871	70.2	0
340	23871	70.3	0
340	23871	70.4	0
340	23871	70.5	0
340	23871	70.6	0
340	23871	70.7	0
340	23871	70.8	0
340	23871	70.9	0
340	23871	71	0
340	23871	71.1	0
340	23871	71.2	0
340	23871	71.3	0
340	23871	71.4	0
340	23871	71.5	0
340	23871	71.6	0
340	23871	71.7	0
340	23871	71.8	0
340	23871	71.9	0
340	23871	72	0
340	23871	72.1	0
340	23871	72.2	0
340	23871	72.3	0
340	23871	72.4	0
340	23871	72.5	0
340	23871	72.6	0
340	23871	72.7	0
340	23871	72.8	0
340	23871	72.9	0
340	23871	73	0
340	23871	73.1	0
340	23871	73.2	0
340	23871	73.3	0
340	23871	73.4	0
340	23871	73.5	0
340	23871	73.6	0
340	23871	73.7	0
340	23871	73.8	0
340	23871	73.9	0
340	23871	74	0
340	23871	74.1	0
340	23871	74.2	0
340	23871	74.3	0
340	23871	74.4	0
340	23871	74.5	0
340	23871	74.6	0
340	23871	74.7	0
340	23871	74.8	0
340	23871	74.9	0
340	23871	75	0
340	23871	75.1	0
340	23871	75.2	0
340	23871	75.3	0
340	23871	75.4	0
340	23871	75.5	0
340	23871	75.6	0
340	23871	75.7	0
340	23871	75.8	0
340	23871	75.9	0
340	23871	76	0
340	23871	76.1	0
340	23871	76.2	0
340	23871	76.3	0
340	23871	76.4	0
340	23871	76.5	0
340	23871	76.6	0
340	23871	76.7	0
340	23871	76.8	0
340	23871	76.9	0
340	23871	77	0
340	23871	77.1	0
340	23871	77.2	0
340	23871	77.3	0
340	23871	77.4	0
340	23871	77.5	0
340	23871	77.6	0
340	23871	77.7	0
340	23871	77.8	0
340	23871	77.9	0
340	23871	78	0
340	23871	78.1	0
340	23871	78.2	0
340	23871	78.3	0
340	23871	78.4	0
340	23871	78.5	0
340	23871	78.6	0
340	23871	78.7	0
340	23871	78.8	0
340	23871	78.9	0
340	23871	79	0
340	23871	79.1	0
340	23871	79.2	0
340	23871	79.3	0
340	23871	79.4	0
340	23871	79.5	0
340	23871	79.6	0
340	23871	79.7	0
340	23871	79.8	0
340	23871	79.9	0
340	23871	80	0
340	23871	80.1	0
340	23871	80.2	0
340	23871	80.3	0
340	23871	80.4	0
340	23871	80.5	0
340	23871	80.6	0
340	23871	80.7	0
340	23871	80.8	0
340	23871	80.9	0
340	23871	81	0
340	23871	81.1	0
340	23871	81.2	0
340	23871	81.3	0
340	23871	81.4	0
340	23871	81.5	0
340	23871	81.6	0
340	23871	81.7	0
340	23871	81.8	0
340	23871	81.9	0
340	23871	82	0
340	23871	82.1	0
340	23871	82.2	0
340	23871	82.3	0
340	23871	82.4	0
340	23871	82.5	0
340	23871	82.6	0
340	23871	82.7	0
340	23871	82.8	0
340	23871	82.9	0
340	23871	83	0
340	23871	83.1	0
340	23871	83.2	0
340	23871	83.3	0
340	23871	83.4	0
340	23871	83.5	0
340	23871	83.6	0
340	23871	83.7	0
340	23871	83.8	0
340	23871	83.9	0
340	23871	84	0
340	23871	84.1	0
340	23871	84.2	0
340	23871	84.3	0
340	23871	84.4	0
340	23871	84.5	0
340	23871	84.6	0
340	23871	84.7	0
340	23871	84.8	0
340	23871	84.9	0
340	23871	85	0
340	23871	85.1	0
340	23871	85.2	0
340	23871	85.3	0
340	23871	85.4	0
340	23871	85.5	0
340	23871	85.6	0
340	23871	85.7	0
340	23871	85.8	0
340	23871	85.9	0
340	23871	86	0
340	23871	86.1	0
340	23871	86.2	0
340	23871	86.3	0
340	23871	86.4	0
340	23871	86.5	0
340	23871	86.6	0
340	23871	86.7	0
340	23871	86.8	0
340	23871	86.9	0
340	23871	87	0
340	23871	87.1	0
340	23871	87.2	0
340	23871	87.3	0
340	23871	87.4	0
340	23871	87.5	0
340	23871	87.6	0
340	23871	87.7	0
340	23871	87.8	0
340	23871	87.9	0
340	23871	88	0
340	23871	88.1	0
340	23871	88.2	0
340	23871	88.3	0
340	23871	88.4	0
340	23871	88.5	0
340	23871	88.6	0
340	23871	88.7	0
340	23871	88.8	0
340	23871	88.9	0
340	23871	89	0
340	23871	89.1	0
340	23871	89.2	0
340	23871	89.3	0
340	23871	89.4	0
340	23871	89.5	0
340	23871	89.6	0
340	23871	89.7	0
340	23871	89.8	0
340	23871	89.9	0
340	23871	90	0
340	23871	90.1	0
340	23871	90.2	0
340	23871	90.3	0
340	23871	90.4	0
340	23871	90.5	0
340	23871	90.6	0
340	23871	90.7	0
340	23871	90.8	0
340	23871	90.9	0
340	23871	91	0
340	23871	91.1	0
340	23871	91.2	0
340	23871	91.3	0
340	23871	91.4	0
340	23871	91.5	0
340	23871	91.6	0
340	23871	91.7	0
340	23871	91.8	0
340	23871	91.9	0
340	23871	92	0
340	23871	92.1	0
340	23871	92.2	0
340	23871	92.3	0
340	23871	92.4	0
340	23871	92.5	0
340	23871	92.6	0
340	23871	92.7	0
340	23871	92.8	0
340	23871	92.9	0
340	23871	93	0
340	23871	93.1	0
340	23871	93.2	0
340	23871	93.3	0
340	23871	93.4	0
340	23871	93.5	0
340	23871	93.6	0
340	23871	93.7	0
340	23871	93.8	0
340	23871	93.9	0
340	23871	94	0
340	23871	94.1	0
340	23871	94.2	0
340	23871	94.3	0
340	23871	94.4	0
340	23871	94.5	0
340	23871	94.6	0
340	23871	94.7	0
340	23871	94.8	0
340	23871	94.9	0
340	23871	95	0
340	23871	95.1	0
340	23871	95.2	0
340	23871	95.3	0
340	23871	95.4	0
340	23871	95.5	0
340	23871	95.6	0
340	23871	95.7	0
340	23871	95.8	0
340	23871	95.9	0
340	23871	96	0
340	23871	96.1	0
340	23871	96.2	0
340	23871	96.3	0
340	23871	96.4	0
340	23871	96.5	0
340	23871	96.6	0
340	23871	96.7	0
340	23871	96.8	0
340	23871	96.9	0
340	23871	97	0
340	23871	97.1	0
340	23871	97.2	0
340	23871	97.3	0
340	23871	97.4	0
340	23871	97.5	0
340	23871	97.6	0
340	23871	97.7	0
340	23871	97.8	0
340	23871	97.9	0
340	23871	98	0
340	23871	98.1	0
340	23871	98.2	0
340	23871	98.3	0
340	23871	98.4	0
340	23871	98.5	0
340	23871	98.6	0
340	23871	98.7	0
340	23871	98.8	0
340	23871	98.9	0
340	23871	99	0
340	23871	99.1	0
340	23871	99.2	0
340	23871	99.3	0
340	23871	99.4	0
340	23871	99.5	0
340	23871	99.6	0
340	23871	99.7	0
340	23871	99.8	0
340	23871	99.9	0
340	23871	100	0
341	3	0	10
341	70	0.252989156416	10
341	96	0.311731284304	10
341	159	0.644612925669	10
341	186	1.039237385191	10
341	247	1.477528829448	10
341	308	1.721731526777	10
341	438	2.089032036281	10
341	466	2.310996458312	10
341	493	2.42450432197	10
341	554	2.66617573155	10
341	581	2.845142708508	10
341	710	3.160888176678	10
341	737	3.477093321055	10
341	798	3.83346813888	10
341	927	4.168709654174	10
341	954	4.366472271544	10
341	980	4.409724348672	10
341	1108	4.904201918799	10
341	1171	5.205580826598	10
341	1202	5.346682980924	10
341	1263	5.532236599241	10
341	1290	5.622873500257	10
341	1419	6.098919749673	10
341	1446	6.169566490204	10
341	1508	6.611708387767	10
341	1601	6.924010008823	10
341	1664	7.4143137058	10
341	1723	7.495709370087	10
341	1818	7.9568712197	10
341	1880	8.107931227975	10
341	1941	8.570481093675	10
341	1969	8.746801347273	10
341	2098	9.17191383487	10
341	2125	9.475507478054	10
341	2184	9.578854196832	10
341	2279	9.925817053002	10
341	2341	10.156628883333	10
341	2370	10.462848798401	10
341	2434	10.791336311476	10
341	2530	11.028720866278	10
341	2591	11.418057125021	10
341	2664	11.861581145419	10
341	2781	12.166102060029	10
341	2841	12.496997403376	10
341	2869	12.747559476113	10
341	2962	12.915807513822	10
341	3025	13.296663185947	10
341	3052	13.463347291666	10
341	3113	13.656519457272	10
341	3208	13.991789844602	10
341	3267	14.083890198473	10
341	3329	14.532553793617	10
341	3357	14.770318726117	10
341	3486	15.232072967284	10
341	3512	15.274913674912	10
341	3574	15.592304469458	10
341	3673	16.02814778356	10
341	3732	16.086002103919	10
341	3762	16.310537903562	10
341	3823	16.747069508412	10
341	3916	16.881672120675	10
341	3945	16.9881962175	10
341	4006	17.245731964985	10
341	4032	17.279529817191	10
341	4093	17.524669030877	10
341	4189	17.99050764489	10
341	4250	18.253020134444	10
341	4277	18.391019221527	10
341	4337	18.54296892518	10
341	4365	18.848176164609	10
341	4494	19.331308803316	10
341	4555	19.80488568787	10
341	4684	20.290748113195	10
341	4711	20.463851154688	10
341	4842	20.952643240079	10
341	4905	21.300354808562	10
341	4966	21.613701212516	10
341	4993	21.741727278491	10
341	5123	22.197275870682	10
341	5150	22.404421219013	10
341	5210	22.583645631011	10
341	5306	23.023154693346	10
341	5367	23.371097434422	10
341	5427	23.498463581356	10
341	5521	23.941604943485	10
341	5548	23.978794732374	10
341	5609	24.076799526524	10
341	5638	24.321997852337	10
341	5665	24.435565506177	10
341	5759	24.870896916789	10
341	5820	24.978978631097	10
341	5882	25.272553752251	10
341	5908	25.375909216183	10
341	5971	25.569825265323	10
341	6067	25.949647528206	10
341	6130	26.236938952147	10
341	6157	26.361288540448	10
341	6217	26.500682209617	10
341	6246	26.789615597307	10
341	6374	27.132825954874	10
341	6402	27.401212850986	10
341	6529	27.890523040241	10
341	6592	28.332986166216	10
341	6653	28.73760739393	10
341	6748	28.999224002442	10
341	6774	29.030511509416	10
341	6836	29.465108655234	10
341	6897	29.717334550844	10
341	6957	29.870337283103	10
341	7053	30.285843207196	10
341	7114	30.776675552122	10
341	7247	31.263812309961	10
341	7274	31.478574295503	10
341	7335	31.697013850176	10
341	7395	31.876536247039	10
341	7460	31.906964288219	10
341	7487	31.974525728965	10
341	7552	32.384477174099	10
341	7613	32.674227347705	10
341	7639	32.745088414513	10
341	7666	32.832542742524	10
341	7795	33.083869414372	10
341	7823	33.439291501351	10
341	7884	33.670175015091	10
341	8012	34.069734134458	10
341	8040	34.418379722847	10
341	8101	34.620940964113	10
341	8229	35.069664553486	10
341	8257	35.474567598026	10
341	8318	35.722579293067	10
341	8417	36.021912193843	10
341	8478	36.419144978517	10
341	8539	36.698829290757	10
341	8633	36.979960499294	10
341	8694	37.093847673413	10
341	8721	37.162671254177	10
341	8784	37.606640926286	10
341	8879	38.048278136211	10
341	8940	38.405598612802	10
341	8966	38.443456381527	10
341	9027	38.582466011544	10
341	9055	38.753901939091	10
341	9150	38.996517880921	10
341	9209	39.067815507019	10
341	9238	39.482679888905	10
341	9368	39.97908391157	10
341	9430	40.205499231183	10
341	9490	40.583062270583	10
341	9518	40.776862474138	10
341	9617	40.987955277486	10
341	9678	41.45436869885	10
341	9737	41.526145750467	10
341	9766	41.706328671655	10
341	9793	41.843985984622	10
341	9885	41.884696414388	10
341	9949	42.168377080807	10
341	9976	42.313642896534	10
341	10037	42.517350522699	10
341	10065	42.836128647977	10
341	10160	43.03893216564	10
341	10221	43.367343999081	10
341	10281	43.567192640344	10
341	10309	43.729181929313	10
341	10437	44.07887908646	10
341	10465	44.305321355312	10
341	10525	44.533542687227	10
341	10553	44.755599700569	10
341	10682	45.240828642601	10
341	10709	45.431375340235	10
341	10773	45.57856124489	10
341	10869	46.0334117074	10
341	10930	46.16683692394	10
341	10957	46.302711545347	10
341	11017	46.510699321385	10
341	11111	46.954516423107	10
341	11173	47.13360873223	10
341	11201	47.240238954485	10
341	11229	47.405954088216	10
341	11290	47.829568920597	10
341	11418	48.118365519189	10
341	11479	48.499978829604	10
341	11505	48.587608546424	10
341	11534	48.827223845173	10
341	11662	49.142804343536	10
341	11690	49.454760301087	10
341	11817	49.935882272819	10
341	11880	50.242191721368	10
341	11944	50.542650111529	10
341	11972	50.783986081075	10
341	11998	50.821097324052	10
341	12127	51.086383856626	10
341	12155	51.408561250011	10
341	12249	51.872536663166	10
341	12311	52.054256098516	10
341	12372	52.24478219349	10
341	12432	52.521574435868	10
341	12461	52.643913184888	10
341	12555	52.972451192561	10
341	12616	53.131733524836	10
341	12644	53.299064185239	10
341	12704	53.50108674564	10
341	12732	53.697633716169	10
341	12825	53.915456319556	10
341	12851	53.944499323956	10
341	12914	54.069130550915	10
341	12942	54.231774092171	10
341	13002	54.575953732829	10
341	13030	54.708818619066	10
341	13129	55.019004930017	10
341	13190	55.360965229026	10
341	13251	55.628123645126	10
341	13379	56.08990107775	10
341	13405	56.158071799387	10
341	13467	56.575813302843	10
341	13563	57.022119673682	10
341	13624	57.305827167132	10
341	13686	57.768942457673	10
341	13814	58.117273644873	10
341	13842	58.225290348384	10
341	13869	58.367394374588	10
341	13929	58.534908109459	10
341	13957	58.843928054945	10
341	14086	59.30016896065	10
341	14146	59.496789157162	10
341	14172	59.54060653051	10
341	14201	59.811472279059	10
341	14334	60.267645433986	10
341	14394	60.541073470823	10
341	14422	60.738113273143	10
341	14550	61.071425482006	10
341	14578	61.419591100861	10
341	14705	61.884299621438	10
341	14767	62.15369317408	10
341	14795	62.459931490755	10
341	14922	62.945915996322	10
341	14986	63.361232315008	10
341	15059	63.860889359189	10
341	15180	64.205108861553	10
341	15207	64.359417809631	10
341	15233	64.454568459225	10
341	15293	64.489870602763	10
341	15322	64.762818830871	10
341	15382	64.873038613101	10
341	15441	64.948865578845	10
341	15509	65.420736866861	10
341	15636	65.912864328779	10
341	15665	66.027669090444	10
341	15726	66.462148823884	10
341	15787	66.781260652198	10
341	15880	66.886547718504	10
341	15942	67.136312992636	10
341	16004	67.626795094557	10
341	16030	67.670629062618	10
341	16058	67.824473799117	10
341	16151	67.961223650797	10
341	16215	68.325262914089	10
341	16241	68.360700391079	10
341	16303	68.677601046369	10
341	16431	69.136746873687	10
341	16459	69.354138788695	10
341	16519	69.512686448193	10
341	16613	69.88788221356	10
341	16677	70.229079135197	10
341	16706	70.303145758881	10
341	16768	70.751520075827	10
341	16862	70.968535792837	10
341	16924	71.162267764859	10
341	16984	71.587586774186	10
341	17012	71.758590430747	10
341	17038	71.824113121022	10
341	17064	71.853240832446	10
341	17161	72.004134690207	10
341	17222	72.204642294753	10
341	17283	72.597033677557	10
341	17310	72.779824349469	10
341	17405	73.010491847158	10
341	17467	73.235867990796	10
341	17493	73.27462045322	10
341	17520	73.345039897719	10
341	17582	73.787266831878	10
341	17711	74.248360507357	10
341	17738	74.446693628844	10
341	17797	74.5343476716	10
341	17828	74.691084300125	10
341	17958	75.120714810337	10
341	17984	75.147548477914	10
341	18013	75.447578799903	10
341	18072	75.511229358699	10
341	18101	75.825311177961	10
341	18229	76.09143806205	10
341	18290	76.561331189154	10
341	18318	76.762992595955	10
341	18344	76.832592468992	10
341	18440	77.008753385364	10
341	18501	77.350917958711	10
341	18562	77.824805677116	10
341	18692	78.275094606237	10
341	18719	78.402911805215	10
341	18780	78.78253934172	10
341	18875	79.022759109833	10
341	18936	79.255720879968	10
341	18997	79.681076953733	10
341	19130	80.169403420451	10
341	19156	80.245521830719	10
341	19184	80.475718879296	10
341	19245	80.784024585345	10
341	19373	81.099243176628	10
341	19401	81.353855108305	10
341	19427	81.38240255885	10
341	19489	81.601346440181	10
341	19582	81.90947730984	10
341	19645	82.360810121065	10
341	19706	82.703221259223	10
341	19834	83.143561220888	10
341	19862	83.343183653595	10
341	19924	83.61846469038	10
341	19951	83.723284886745	10
341	19977	83.778472932175	10
341	20072	83.968942388249	10
341	20134	84.375316740511	10
341	20195	84.745760448815	10
341	20327	85.073555031701	10
341	20355	85.344195238248	10
341	20416	85.708845222483	10
341	20544	86.12562413404	10
341	20605	86.498936472685	10
341	20633	86.857838535254	10
341	20768	87.30514201024	10
341	20828	87.55981312217	10
341	20901	87.880012811398	10
341	20988	88.066337559434	10
341	21016	88.211809770813	10
341	21077	88.651749264726	10
341	21104	88.847326826861	10
341	21233	89.125344404052	10
341	21261	89.276888159218	10
341	21322	89.73649927243	10
341	21349	89.851632241355	10
341	21481	90.151044216575	10
341	21543	90.63382118684	10
341	21671	91.070145284784	10
341	21699	91.176938246817	10
341	21726	91.438573540058	10
341	21853	91.906589668527	10
341	21915	92.09698084113	10
341	21943	92.395359436857	10
341	22004	92.856668999655	10
341	22135	93.194821237247	10
341	22161	93.261328017233	10
341	22223	93.696476574124	10
341	22283	93.867008332784	10
341	22345	94.041430647221	10
341	22406	94.334647250796	10
341	22468	94.623103652572	10
341	22495	94.764019057484	10
341	22623	95.156246333119	10
341	22688	95.526799687299	10
341	22782	95.941310346433	10
341	22810	96.044463386163	10
341	22870	96.136145763283	10
341	22899	96.276398493248	10
341	22959	96.489134282459	10
341	22987	96.70053880176	10
341	23115	97.071230153836	10
341	23176	97.519730885447	10
341	23204	97.708846073584	10
341	23299	98.049704305698	10
341	23360	98.179253640036	10
341	23387	98.437759568529	10
341	23448	98.615867999841	10
341	23508	98.874188494995	10
341	23604	99.316795829304	10
341	23664	99.552753498899	10
341	23693	99.671451748092	10
341	23719	99.732345864327	10
341	23813	99.901828303833	10
341	23845	99.991597879875	10

