version 3
run General-0-20250906-19:48:20-2663
attr configname General
attr datetime 20250906-19:48:20
attr datetimef 20250906-194820
attr experiment General
attr inifile omnetpp.ini
attr iterationvars ""
attr iterationvarsd ""
attr iterationvarsf ""
attr measurement ""
attr network NetworkA
attr processid 2663
attr repetition 0
attr replication #0
attr resultdir results
attr runnumber 0
attr seedset 0
config image-path ../../inet-4.5.4/images
config network NetworkA
config sim-time-limit 100s
config **.wlan*.mac.debug true
config **.wlan*.radio.debug true
config **.wlan*.mac.typename BMac
config **.wlan*.mac.headerLength 1B
config **.wlan*.mac.slotDuration 0.03s
config **.wlan*.queue.typename DropTailQueue
config **.wlan*.queue.packetCapacity 50
config **.wlan[*].typename WirelessInterface
config **.wlan[*].radio.typename ApskScalarRadio
config **.arp.typename GlobalArp
config **.maxTransmissionDuration 100ms
config *.gateway.forwarding true
config **.radio.centerFrequency 2.45GHz
config **.radio.bandwidth 2.8MHz
config **.radio.transmitter.bitrate "19200 bps"
config **.radio.transmitter.headerLength 8b
config **.radio.transmitter.preambleDuration 0.0001s
config **.radio.transmitter.power 2.24mW
config **.radio.receiver.energyDetection -90dBm
config **.radio.receiver.sensitivity -100dBm
config **.radio.receiver.snirThreshold -8dB
config *.radioMedium.backgroundNoise.power -110dBm
config *.sensor*.numApps 2
config *.sensor*.app[0].typename UdpBasicApp
config *.sensor*.app[0].destAddresses "\"server\""
config *.sensor*.app[0].destPort 1000
config *.sensor*.app[0].sendInterval 1s
config *.sensor*.app[0].startTime exponential(1s)
config *.sensor*.app[0].messageLength 10B
config *.sensor*.app[1].typename UdpSink
config *.sensor*.app[1].localPort 4000
config *.sensor*.app[1].recordStats true
config *.server.numApps 1
config *.server.app[0].typename UdpSink
config *.server.app[0].localPort 1000
config *.server.app[0].recordStats true
config *.maliciousNode.numApps 1
config *.maliciousNode.app[0].typename UdpBasicApp
config *.maliciousNode.app[0].destAddresses "\"255.255.255.255\""
config *.maliciousNode.app[0].destPort 4000
config *.maliciousNode.app[0].messageLength 40B
config *.maliciousNode.app[0].sendInterval 0.02s
config *.maliciousNode.app[0].startTime 0s
config *.visualizer.*.routingTableVisualizer.lineShift 0
config *.visualizer.*.routingTableVisualizer.displayLabels true
config *.visualizer.*.infoVisualizer.modules "\"*.server.app[0]\""
config *.visualizer.*.infoVisualizer.format "\"%t\""
config *.visualizer.*.networkRouteVisualizer.displayRoutes true
config *.visualizer.*.physicalLinkVisualizer.displayLinks true
config *.visualizer.energyStorageVisualizer.displayEnergyStorages true
config *.sensor*.nominalCapacity 0.05J
config *.sensor*.energyStorage.nominalCapacity 0.05J
config *.sensor*.energyManagement.typename SimpleEpEnergyManagement
config *.sensor*.energyManagement.nodeShutdownCapacity 0.005J
config *.gateway.energyStorage.nominalCapacity 0.05J
config *.gateway.energyManagement.typename SimpleEpEnergyManagement
config *.gateway.energyManagement.nodeShutdownCapacity 0.005J

vector 0 NetworkA.sensor4.energyStorage powerConsumption:vector ETV
attr interpolationmode sample-hold
attr recordingmode vector
attr source powerConsumptionChanged
attr title "Power consumption"
attr unit W
vector 1 NetworkA.sensor4.energyStorage powerGeneration:vector ETV
attr interpolationmode sample-hold
attr recordingmode vector
attr source powerGenerationChanged
attr title "Power generation"
attr unit W
vector 2 NetworkA.sensor4.energyStorage residualEnergyCapacity:vector ETV
attr interpolationmode linear
attr recordingmode vector
attr source residualEnergyCapacityChanged
attr title "Residual energy capacity"
attr unit J
vector 3 NetworkA.sensor4.lo[0].lo rcvdPkFromHl:vector(packetBytes) ETV
attr interpolationmode none
attr recordingmode vector(packetBytes)
attr source packetReceivedFromUpper
attr title "packets received from higher layer, packetBytes"
vector 4 NetworkA.sensor4.lo[0].lo passedUpPk:vector(packetBytes) ETV
attr interpolationmode none
attr recordingmode vector(packetBytes)
attr source packetSentToUpper
attr title "packets passed to higher layer, packetBytes"
vector 5 NetworkA.sensor4.lo[0] packetDropInterfaceDown:vector(packetBytes) ETV
attr interpolationmode none
attr recordingmode vector(packetBytes)
attr source packetDropReasonIsInterfaceDown(packetDropped)
attr title "packet drops: interface down, packetBytes"
vector 6 NetworkA.sensor4.lo[0] packetDropNoCarrier:vector(packetBytes) ETV
attr interpolationmode none
attr recordingmode vector(packetBytes)
attr source packetDropReasonIsNoCarrier(packetDropped)
attr title "packet drops: no carrier, packetBytes"
vector 7 NetworkA.sensor4.wlan[0].queue queueLength:vector ETV
attr autoWarmupFilter false
attr interpolationmode sample-hold
attr recordingmode vector
attr source "warmup(atomic(constant0(packetPushEnded) + count(packetPushStarted) - count(packetPulled) - count(packetRemoved) - count(packetDropped)))"
attr title "queue length"
attr unit pk
vector 8 NetworkA.sensor4.wlan[0].queue queueBitLength:vector ETV
attr autoWarmupFilter false
attr interpolationmode sample-hold
attr recordingmode vector
attr source "warmup(atomic(constant0(packetPushEnded) + sum(packetLength(packetPushStarted)) - sum(packetLength(packetPulled)) - sum(packetLength(packetRemoved)) - sum(packetLength(packetDropped))))"
attr title "queue bit length"
attr unit b
vector 9 NetworkA.sensor4.wlan[0].queue queueingTime:vector ETV
attr interpolationmode none
attr recordingmode vector
attr source queueingTime(packetPulled)
attr title "queueing times"
attr unit s
vector 10 NetworkA.sensor4.wlan[0].queue incomingPacketLengths:vector ETV
attr interpolationmode none
attr recordingmode vector
attr source packetLength(packetPushStarted)
attr title "incoming packet lengths"
attr unit b
vector 11 NetworkA.sensor4.wlan[0].queue incomingDataRate:vector ETV
attr interpolationmode linear
attr recordingmode vector
attr source throughput(packetPushStarted)
attr title "incoming datarate"
attr unit bps
vector 12 NetworkA.sensor4.wlan[0].queue outgoingPacketLengths:vector ETV
attr interpolationmode none
attr recordingmode vector
attr source packetLength(packetPulled)
attr title "outgoing packet lengths"
attr unit b
vector 13 NetworkA.sensor4.wlan[0].queue outgoingDataRate:vector ETV
attr interpolationmode linear
attr recordingmode vector
attr source throughput(packetPulled)
attr title "outgoing datarate"
attr unit bps
vector 14 NetworkA.sensor4.wlan[0].queue droppedPacketLengthsQueueOverflow:vector ETV
attr interpolationmode none
attr recordingmode vector
attr source packetLength(packetDropReasonIsQueueOverflow(packetDropped))
attr title "dropped packet lengths: queue overflow"
attr unit b
vector 15 NetworkA.sensor4.wlan[0].queue flowQueueingTime:vector ETV
attr interpolationmode none
attr recordingmode vector
attr source queueingTime(demuxFlow(packetPulled))
attr title "flow queueing times"
attr unit s
vector 16 NetworkA.sensor4.wlan[0].queue flowIncomingDataRate:vector ETV
attr interpolationmode linear
attr recordingmode vector
attr source throughput(flowPacketLength(demuxFlow(packetPushStarted)))
attr title "flow specific incoming data rate"
attr unit bps
vector 17 NetworkA.sensor4.wlan[0].queue flowOutgoingDataRate:vector ETV
attr interpolationmode linear
attr recordingmode vector
attr source throughput(flowPacketLength(demuxFlow(packetPulled)))
attr title "flow specific outgoing data rate"
attr unit bps
vector 18 NetworkA.sensor4.wlan[0].mac packetDropIncorrectlyReceived:vector(packetBytes) ETV
attr interpolationmode none
attr recordingmode vector(packetBytes)
attr source packetDropReasonIsIncorrectlyReceived(packetDropped)
attr title "packet drop: incorrectly received, packetBytes"
vector 19 NetworkA.sensor4.wlan[0].mac packetDropNotAddressedToUs:vector(packetBytes) ETV
attr interpolationmode none
attr recordingmode vector(packetBytes)
attr source packetDropReasonIsNotAddressedToUs(packetDropped)
attr title "packet drop: not addressed to us, packetBytes"
vector 20 NetworkA.sensor4.wlan[0].mac packetDropQueueOverflow:vector(packetBytes) ETV
attr interpolationmode none
attr recordingmode vector(packetBytes)
attr source packetDropReasonIsQueueOverflow(packetDropped)
attr title "packet drop: queue overflow, packetBytes"
vector 21 NetworkA.sensor4.wlan[0].radio.energyConsumer powerConsumption:vector ETV
attr interpolationmode sample-hold
attr recordingmode vector
attr source powerConsumptionChanged
attr title "Power consumption"
attr unit W
vector 22 NetworkA.sensor4.wlan[0].radio radioMode:vector ETV
attr interpolationmode sample-hold
attr recordingmode vector
attr source radioModeChanged
attr title "Radio mode"
vector 23 NetworkA.sensor4.wlan[0].radio receptionState:vector ETV
attr interpolationmode sample-hold
attr recordingmode vector
attr source receptionStateChanged
attr title "Radio reception state"
vector 24 NetworkA.sensor4.wlan[0].radio transmissionState:vector ETV
attr interpolationmode sample-hold
attr recordingmode vector
attr source transmissionStateChanged
attr title "Radio transmission state"
vector 25 NetworkA.sensor4.wlan[0].radio packetDropped:vector(packetBytes) ETV
attr interpolationmode none
attr recordingmode vector(packetBytes)
attr title "packets dropped, packetBytes"
vector 26 NetworkA.sensor4.wlan[0] packetDropInterfaceDown:vector(packetBytes) ETV
attr interpolationmode none
attr recordingmode vector(packetBytes)
attr source packetDropReasonIsInterfaceDown(packetDropped)
attr title "packet drops: interface down, packetBytes"
vector 27 NetworkA.sensor4.wlan[0] packetDropNoCarrier:vector(packetBytes) ETV
attr interpolationmode none
attr recordingmode vector(packetBytes)
attr source packetDropReasonIsNoCarrier(packetDropped)
attr title "packet drops: no carrier, packetBytes"
vector 28 NetworkA.sensor4.ipv4.ip packetDropAddressResolutionFailed:vector(packetBytes) ETV
attr interpolationmode none
attr recordingmode vector(packetBytes)
attr source packetDropReasonIsAddressResolutionFailed(packetDropped)
attr title "packet drop: address resolution failed, packetBytes"
vector 29 NetworkA.sensor4.ipv4.ip packetDropHopLimitReached:vector(packetBytes) ETV
attr interpolationmode none
attr recordingmode vector(packetBytes)
attr source packetDropReasonIsHopLimitReached(packetDropped)
attr title "packet drop: hop limit reached, packetBytes"
vector 30 NetworkA.sensor4.ipv4.ip packetDropForwardingDisabled:vector(packetBytes) ETV
attr interpolationmode none
attr recordingmode vector(packetBytes)
attr source packetDropReasonIsForwardingDisabled(packetDropped)
attr title "packet drop: forwarding disabled, packetBytes"
vector 31 NetworkA.sensor4.ipv4.ip packetDropNoInterfaceFound:vector(packetBytes) ETV
attr interpolationmode none
attr recordingmode vector(packetBytes)
attr source packetDropReasonIsNoInterfaceFound(packetDropped)
attr title "packet drop: no interface found, packetBytes"
vector 32 NetworkA.sensor4.ipv4.ip packetDropNoRouteFound:vector(packetBytes) ETV
attr interpolationmode none
attr recordingmode vector(packetBytes)
attr source packetDropReasonIsNoRouteFound(packetDropped)
attr title "packet drop: no route found, packetBytes"
vector 33 NetworkA.sensor4.ipv4.ip packetDropUndefined:vector(packetBytes) ETV
attr interpolationmode none
attr recordingmode vector(packetBytes)
attr source packetDropReasonIsUndefined(packetDropped)
attr title "packet drop: undefined, packetBytes"
vector 34 NetworkA.sensor4.udp packetSent:vector(packetBytes) ETV
attr interpolationmode none
attr recordingmode vector(packetBytes)
attr source packetSent
attr title "packets sent, packetBytes"
vector 35 NetworkA.sensor4.udp packetReceived:vector(packetBytes) ETV
attr interpolationmode none
attr recordingmode vector(packetBytes)
attr source packetReceived
attr title "packets received, packetBytes"
vector 36 NetworkA.sensor4.udp passedUpPk:vector(count) ETV
attr interpolationmode none
attr recordingmode vector(count)
attr source packetSentToUpper
attr title "packets passed up, count"
vector 37 NetworkA.sensor4.udp droppedPkWrongPort:vector(count) ETV
attr interpolationmode none
attr recordingmode vector(count)
attr source packetDropReasonIsNoPortFound(packetDropped)
attr title "packets dropped (wrong port), count"
vector 38 NetworkA.sensor4.udp droppedPkBadChecksum:vector(count) ETV
attr interpolationmode none
attr recordingmode vector(count)
attr source packetDropReasonIsIncorrectlyReceived(packetDropped)
attr title "packets dropped (checksum error), count"
vector 39 NetworkA.sensor4.app[0] packetReceived:vector(packetBytes) ETV
attr interpolationmode none
attr recordingmode vector(packetBytes)
attr source packetReceived
attr title "packets received, packetBytes"
vector 40 NetworkA.sensor4.app[0] throughput:vector ETV
attr recordingmode vector
attr source throughput(packetReceived)
attr title throughput
attr unit bps
vector 41 NetworkA.sensor4.app[0] packetSent:vector(packetBytes) ETV
attr interpolationmode none
attr recordingmode vector(packetBytes)
attr source packetSent
attr title "packets sent, packetBytes"
vector 42 NetworkA.sensor4.app[0] rcvdPkLifetime:vector ETV
attr interpolationmode none
attr recordingmode vector
attr source dataAge(packetReceived)
attr title "received packet lifetime"
attr unit s
vector 43 NetworkA.sensor4.app[0] rcvdPkSeqNo:vector ETV
attr interpolationmode none
attr recordingmode vector
attr source appPkSeqNo(packetReceived)
attr title "received packet sequence number"
vector 44 NetworkA.sensor4.app[1] packetReceived:vector(packetBytes) ETV
attr interpolationmode none
attr recordingmode vector(packetBytes)
attr source packetReceived
attr title "packets received, packetBytes"
vector 45 NetworkA.sensor4.app[1] throughput:vector ETV
attr recordingmode vector
attr source throughput(packetReceived)
attr title throughput
attr unit bps
vector 46 NetworkA.sensor4.app[1] endToEndDelay:vector ETV
attr interpolationmode none
attr recordingmode vector
attr source dataAge(packetReceived)
attr title "end-to-end delay"
attr unit s
vector 47 NetworkA.sensor4.app[1] rcvdPkSeqNo:vector ETV
attr interpolationmode none
attr recordingmode vector
attr source appPkSeqNo(packetReceived)
attr title "received packet sequence number"
vector 48 NetworkA.sensor1.energyStorage powerConsumption:vector ETV
attr interpolationmode sample-hold
attr recordingmode vector
attr source powerConsumptionChanged
attr title "Power consumption"
attr unit W
vector 49 NetworkA.sensor1.energyStorage powerGeneration:vector ETV
attr interpolationmode sample-hold
attr recordingmode vector
attr source powerGenerationChanged
attr title "Power generation"
attr unit W
vector 50 NetworkA.sensor1.energyStorage residualEnergyCapacity:vector ETV
attr interpolationmode linear
attr recordingmode vector
attr source residualEnergyCapacityChanged
attr title "Residual energy capacity"
attr unit J
vector 51 NetworkA.sensor1.lo[0].lo rcvdPkFromHl:vector(packetBytes) ETV
attr interpolationmode none
attr recordingmode vector(packetBytes)
attr source packetReceivedFromUpper
attr title "packets received from higher layer, packetBytes"
vector 52 NetworkA.sensor1.lo[0].lo passedUpPk:vector(packetBytes) ETV
attr interpolationmode none
attr recordingmode vector(packetBytes)
attr source packetSentToUpper
attr title "packets passed to higher layer, packetBytes"
vector 53 NetworkA.sensor1.lo[0] packetDropInterfaceDown:vector(packetBytes) ETV
attr interpolationmode none
attr recordingmode vector(packetBytes)
attr source packetDropReasonIsInterfaceDown(packetDropped)
attr title "packet drops: interface down, packetBytes"
vector 54 NetworkA.sensor1.lo[0] packetDropNoCarrier:vector(packetBytes) ETV
attr interpolationmode none
attr recordingmode vector(packetBytes)
attr source packetDropReasonIsNoCarrier(packetDropped)
attr title "packet drops: no carrier, packetBytes"
vector 55 NetworkA.sensor1.wlan[0].queue queueLength:vector ETV
attr autoWarmupFilter false
attr interpolationmode sample-hold
attr recordingmode vector
attr source "warmup(atomic(constant0(packetPushEnded) + count(packetPushStarted) - count(packetPulled) - count(packetRemoved) - count(packetDropped)))"
attr title "queue length"
attr unit pk
vector 56 NetworkA.sensor1.wlan[0].queue queueBitLength:vector ETV
attr autoWarmupFilter false
attr interpolationmode sample-hold
attr recordingmode vector
attr source "warmup(atomic(constant0(packetPushEnded) + sum(packetLength(packetPushStarted)) - sum(packetLength(packetPulled)) - sum(packetLength(packetRemoved)) - sum(packetLength(packetDropped))))"
attr title "queue bit length"
attr unit b
vector 57 NetworkA.sensor1.wlan[0].queue queueingTime:vector ETV
attr interpolationmode none
attr recordingmode vector
attr source queueingTime(packetPulled)
attr title "queueing times"
attr unit s
vector 58 NetworkA.sensor1.wlan[0].queue incomingPacketLengths:vector ETV
attr interpolationmode none
attr recordingmode vector
attr source packetLength(packetPushStarted)
attr title "incoming packet lengths"
attr unit b
vector 59 NetworkA.sensor1.wlan[0].queue incomingDataRate:vector ETV
attr interpolationmode linear
attr recordingmode vector
attr source throughput(packetPushStarted)
attr title "incoming datarate"
attr unit bps
vector 60 NetworkA.sensor1.wlan[0].queue outgoingPacketLengths:vector ETV
attr interpolationmode none
attr recordingmode vector
attr source packetLength(packetPulled)
attr title "outgoing packet lengths"
attr unit b
vector 61 NetworkA.sensor1.wlan[0].queue outgoingDataRate:vector ETV
attr interpolationmode linear
attr recordingmode vector
attr source throughput(packetPulled)
attr title "outgoing datarate"
attr unit bps
vector 62 NetworkA.sensor1.wlan[0].queue droppedPacketLengthsQueueOverflow:vector ETV
attr interpolationmode none
attr recordingmode vector
attr source packetLength(packetDropReasonIsQueueOverflow(packetDropped))
attr title "dropped packet lengths: queue overflow"
attr unit b
vector 63 NetworkA.sensor1.wlan[0].queue flowQueueingTime:vector ETV
attr interpolationmode none
attr recordingmode vector
attr source queueingTime(demuxFlow(packetPulled))
attr title "flow queueing times"
attr unit s
vector 64 NetworkA.sensor1.wlan[0].queue flowIncomingDataRate:vector ETV
attr interpolationmode linear
attr recordingmode vector
attr source throughput(flowPacketLength(demuxFlow(packetPushStarted)))
attr title "flow specific incoming data rate"
attr unit bps
vector 65 NetworkA.sensor1.wlan[0].queue flowOutgoingDataRate:vector ETV
attr interpolationmode linear
attr recordingmode vector
attr source throughput(flowPacketLength(demuxFlow(packetPulled)))
attr title "flow specific outgoing data rate"
attr unit bps
vector 66 NetworkA.sensor1.wlan[0].mac packetDropIncorrectlyReceived:vector(packetBytes) ETV
attr interpolationmode none
attr recordingmode vector(packetBytes)
attr source packetDropReasonIsIncorrectlyReceived(packetDropped)
attr title "packet drop: incorrectly received, packetBytes"
vector 67 NetworkA.sensor1.wlan[0].mac packetDropNotAddressedToUs:vector(packetBytes) ETV
attr interpolationmode none
attr recordingmode vector(packetBytes)
attr source packetDropReasonIsNotAddressedToUs(packetDropped)
attr title "packet drop: not addressed to us, packetBytes"
vector 68 NetworkA.sensor1.wlan[0].mac packetDropQueueOverflow:vector(packetBytes) ETV
attr interpolationmode none
attr recordingmode vector(packetBytes)
attr source packetDropReasonIsQueueOverflow(packetDropped)
attr title "packet drop: queue overflow, packetBytes"
vector 69 NetworkA.sensor1.wlan[0].radio.energyConsumer powerConsumption:vector ETV
attr interpolationmode sample-hold
attr recordingmode vector
attr source powerConsumptionChanged
attr title "Power consumption"
attr unit W
vector 70 NetworkA.sensor1.wlan[0].radio radioMode:vector ETV
attr interpolationmode sample-hold
attr recordingmode vector
attr source radioModeChanged
attr title "Radio mode"
vector 71 NetworkA.sensor1.wlan[0].radio receptionState:vector ETV
attr interpolationmode sample-hold
attr recordingmode vector
attr source receptionStateChanged
attr title "Radio reception state"
vector 72 NetworkA.sensor1.wlan[0].radio transmissionState:vector ETV
attr interpolationmode sample-hold
attr recordingmode vector
attr source transmissionStateChanged
attr title "Radio transmission state"
vector 73 NetworkA.sensor1.wlan[0].radio packetDropped:vector(packetBytes) ETV
attr interpolationmode none
attr recordingmode vector(packetBytes)
attr title "packets dropped, packetBytes"
vector 74 NetworkA.sensor1.wlan[0] packetDropInterfaceDown:vector(packetBytes) ETV
attr interpolationmode none
attr recordingmode vector(packetBytes)
attr source packetDropReasonIsInterfaceDown(packetDropped)
attr title "packet drops: interface down, packetBytes"
vector 75 NetworkA.sensor1.wlan[0] packetDropNoCarrier:vector(packetBytes) ETV
attr interpolationmode none
attr recordingmode vector(packetBytes)
attr source packetDropReasonIsNoCarrier(packetDropped)
attr title "packet drops: no carrier, packetBytes"
vector 76 NetworkA.sensor1.ipv4.ip packetDropAddressResolutionFailed:vector(packetBytes) ETV
attr interpolationmode none
attr recordingmode vector(packetBytes)
attr source packetDropReasonIsAddressResolutionFailed(packetDropped)
attr title "packet drop: address resolution failed, packetBytes"
vector 77 NetworkA.sensor1.ipv4.ip packetDropHopLimitReached:vector(packetBytes) ETV
attr interpolationmode none
attr recordingmode vector(packetBytes)
attr source packetDropReasonIsHopLimitReached(packetDropped)
attr title "packet drop: hop limit reached, packetBytes"
vector 78 NetworkA.sensor1.ipv4.ip packetDropForwardingDisabled:vector(packetBytes) ETV
attr interpolationmode none
attr recordingmode vector(packetBytes)
attr source packetDropReasonIsForwardingDisabled(packetDropped)
attr title "packet drop: forwarding disabled, packetBytes"
vector 79 NetworkA.sensor1.ipv4.ip packetDropNoInterfaceFound:vector(packetBytes) ETV
attr interpolationmode none
attr recordingmode vector(packetBytes)
attr source packetDropReasonIsNoInterfaceFound(packetDropped)
attr title "packet drop: no interface found, packetBytes"
vector 80 NetworkA.sensor1.ipv4.ip packetDropNoRouteFound:vector(packetBytes) ETV
attr interpolationmode none
attr recordingmode vector(packetBytes)
attr source packetDropReasonIsNoRouteFound(packetDropped)
attr title "packet drop: no route found, packetBytes"
vector 81 NetworkA.sensor1.ipv4.ip packetDropUndefined:vector(packetBytes) ETV
attr interpolationmode none
attr recordingmode vector(packetBytes)
attr source packetDropReasonIsUndefined(packetDropped)
attr title "packet drop: undefined, packetBytes"
vector 82 NetworkA.sensor1.udp packetSent:vector(packetBytes) ETV
attr interpolationmode none
attr recordingmode vector(packetBytes)
attr source packetSent
attr title "packets sent, packetBytes"
vector 83 NetworkA.sensor1.udp packetReceived:vector(packetBytes) ETV
attr interpolationmode none
attr recordingmode vector(packetBytes)
attr source packetReceived
attr title "packets received, packetBytes"
vector 84 NetworkA.sensor1.udp passedUpPk:vector(count) ETV
attr interpolationmode none
attr recordingmode vector(count)
attr source packetSentToUpper
attr title "packets passed up, count"
vector 85 NetworkA.sensor1.udp droppedPkWrongPort:vector(count) ETV
attr interpolationmode none
attr recordingmode vector(count)
attr source packetDropReasonIsNoPortFound(packetDropped)
attr title "packets dropped (wrong port), count"
vector 86 NetworkA.sensor1.udp droppedPkBadChecksum:vector(count) ETV
attr interpolationmode none
attr recordingmode vector(count)
attr source packetDropReasonIsIncorrectlyReceived(packetDropped)
attr title "packets dropped (checksum error), count"
vector 87 NetworkA.sensor1.app[0] packetReceived:vector(packetBytes) ETV
attr interpolationmode none
attr recordingmode vector(packetBytes)
attr source packetReceived
attr title "packets received, packetBytes"
vector 88 NetworkA.sensor1.app[0] throughput:vector ETV
attr recordingmode vector
attr source throughput(packetReceived)
attr title throughput
attr unit bps
vector 89 NetworkA.sensor1.app[0] packetSent:vector(packetBytes) ETV
attr interpolationmode none
attr recordingmode vector(packetBytes)
attr source packetSent
attr title "packets sent, packetBytes"
vector 90 NetworkA.sensor1.app[0] rcvdPkLifetime:vector ETV
attr interpolationmode none
attr recordingmode vector
attr source dataAge(packetReceived)
attr title "received packet lifetime"
attr unit s
vector 91 NetworkA.sensor1.app[0] rcvdPkSeqNo:vector ETV
attr interpolationmode none
attr recordingmode vector
attr source appPkSeqNo(packetReceived)
attr title "received packet sequence number"
vector 92 NetworkA.sensor1.app[1] packetReceived:vector(packetBytes) ETV
attr interpolationmode none
attr recordingmode vector(packetBytes)
attr source packetReceived
attr title "packets received, packetBytes"
vector 93 NetworkA.sensor1.app[1] throughput:vector ETV
attr recordingmode vector
attr source throughput(packetReceived)
attr title throughput
attr unit bps
vector 94 NetworkA.sensor1.app[1] endToEndDelay:vector ETV
attr interpolationmode none
attr recordingmode vector
attr source dataAge(packetReceived)
attr title "end-to-end delay"
attr unit s
vector 95 NetworkA.sensor1.app[1] rcvdPkSeqNo:vector ETV
attr interpolationmode none
attr recordingmode vector
attr source appPkSeqNo(packetReceived)
attr title "received packet sequence number"
vector 96 NetworkA.sensor2.energyStorage powerConsumption:vector ETV
attr interpolationmode sample-hold
attr recordingmode vector
attr source powerConsumptionChanged
attr title "Power consumption"
attr unit W
vector 97 NetworkA.sensor2.energyStorage powerGeneration:vector ETV
attr interpolationmode sample-hold
attr recordingmode vector
attr source powerGenerationChanged
attr title "Power generation"
attr unit W
vector 98 NetworkA.sensor2.energyStorage residualEnergyCapacity:vector ETV
attr interpolationmode linear
attr recordingmode vector
attr source residualEnergyCapacityChanged
attr title "Residual energy capacity"
attr unit J
vector 99 NetworkA.sensor2.lo[0].lo rcvdPkFromHl:vector(packetBytes) ETV
attr interpolationmode none
attr recordingmode vector(packetBytes)
attr source packetReceivedFromUpper
attr title "packets received from higher layer, packetBytes"
vector 100 NetworkA.sensor2.lo[0].lo passedUpPk:vector(packetBytes) ETV
attr interpolationmode none
attr recordingmode vector(packetBytes)
attr source packetSentToUpper
attr title "packets passed to higher layer, packetBytes"
vector 101 NetworkA.sensor2.lo[0] packetDropInterfaceDown:vector(packetBytes) ETV
attr interpolationmode none
attr recordingmode vector(packetBytes)
attr source packetDropReasonIsInterfaceDown(packetDropped)
attr title "packet drops: interface down, packetBytes"
vector 102 NetworkA.sensor2.lo[0] packetDropNoCarrier:vector(packetBytes) ETV
attr interpolationmode none
attr recordingmode vector(packetBytes)
attr source packetDropReasonIsNoCarrier(packetDropped)
attr title "packet drops: no carrier, packetBytes"
vector 103 NetworkA.sensor2.wlan[0].queue queueLength:vector ETV
attr autoWarmupFilter false
attr interpolationmode sample-hold
attr recordingmode vector
attr source "warmup(atomic(constant0(packetPushEnded) + count(packetPushStarted) - count(packetPulled) - count(packetRemoved) - count(packetDropped)))"
attr title "queue length"
attr unit pk
vector 104 NetworkA.sensor2.wlan[0].queue queueBitLength:vector ETV
attr autoWarmupFilter false
attr interpolationmode sample-hold
attr recordingmode vector
attr source "warmup(atomic(constant0(packetPushEnded) + sum(packetLength(packetPushStarted)) - sum(packetLength(packetPulled)) - sum(packetLength(packetRemoved)) - sum(packetLength(packetDropped))))"
attr title "queue bit length"
attr unit b
vector 105 NetworkA.sensor2.wlan[0].queue queueingTime:vector ETV
attr interpolationmode none
attr recordingmode vector
attr source queueingTime(packetPulled)
attr title "queueing times"
attr unit s
vector 106 NetworkA.sensor2.wlan[0].queue incomingPacketLengths:vector ETV
attr interpolationmode none
attr recordingmode vector
attr source packetLength(packetPushStarted)
attr title "incoming packet lengths"
attr unit b
vector 107 NetworkA.sensor2.wlan[0].queue incomingDataRate:vector ETV
attr interpolationmode linear
attr recordingmode vector
attr source throughput(packetPushStarted)
attr title "incoming datarate"
attr unit bps
vector 108 NetworkA.sensor2.wlan[0].queue outgoingPacketLengths:vector ETV
attr interpolationmode none
attr recordingmode vector
attr source packetLength(packetPulled)
attr title "outgoing packet lengths"
attr unit b
vector 109 NetworkA.sensor2.wlan[0].queue outgoingDataRate:vector ETV
attr interpolationmode linear
attr recordingmode vector
attr source throughput(packetPulled)
attr title "outgoing datarate"
attr unit bps
vector 110 NetworkA.sensor2.wlan[0].queue droppedPacketLengthsQueueOverflow:vector ETV
attr interpolationmode none
attr recordingmode vector
attr source packetLength(packetDropReasonIsQueueOverflow(packetDropped))
attr title "dropped packet lengths: queue overflow"
attr unit b
vector 111 NetworkA.sensor2.wlan[0].queue flowQueueingTime:vector ETV
attr interpolationmode none
attr recordingmode vector
attr source queueingTime(demuxFlow(packetPulled))
attr title "flow queueing times"
attr unit s
vector 112 NetworkA.sensor2.wlan[0].queue flowIncomingDataRate:vector ETV
attr interpolationmode linear
attr recordingmode vector
attr source throughput(flowPacketLength(demuxFlow(packetPushStarted)))
attr title "flow specific incoming data rate"
attr unit bps
vector 113 NetworkA.sensor2.wlan[0].queue flowOutgoingDataRate:vector ETV
attr interpolationmode linear
attr recordingmode vector
attr source throughput(flowPacketLength(demuxFlow(packetPulled)))
attr title "flow specific outgoing data rate"
attr unit bps
vector 114 NetworkA.sensor2.wlan[0].mac packetDropIncorrectlyReceived:vector(packetBytes) ETV
attr interpolationmode none
attr recordingmode vector(packetBytes)
attr source packetDropReasonIsIncorrectlyReceived(packetDropped)
attr title "packet drop: incorrectly received, packetBytes"
vector 115 NetworkA.sensor2.wlan[0].mac packetDropNotAddressedToUs:vector(packetBytes) ETV
attr interpolationmode none
attr recordingmode vector(packetBytes)
attr source packetDropReasonIsNotAddressedToUs(packetDropped)
attr title "packet drop: not addressed to us, packetBytes"
vector 116 NetworkA.sensor2.wlan[0].mac packetDropQueueOverflow:vector(packetBytes) ETV
attr interpolationmode none
attr recordingmode vector(packetBytes)
attr source packetDropReasonIsQueueOverflow(packetDropped)
attr title "packet drop: queue overflow, packetBytes"
vector 117 NetworkA.sensor2.wlan[0].radio.energyConsumer powerConsumption:vector ETV
attr interpolationmode sample-hold
attr recordingmode vector
attr source powerConsumptionChanged
attr title "Power consumption"
attr unit W
vector 118 NetworkA.sensor2.wlan[0].radio radioMode:vector ETV
attr interpolationmode sample-hold
attr recordingmode vector
attr source radioModeChanged
attr title "Radio mode"
vector 119 NetworkA.sensor2.wlan[0].radio receptionState:vector ETV
attr interpolationmode sample-hold
attr recordingmode vector
attr source receptionStateChanged
attr title "Radio reception state"
vector 120 NetworkA.sensor2.wlan[0].radio transmissionState:vector ETV
attr interpolationmode sample-hold
attr recordingmode vector
attr source transmissionStateChanged
attr title "Radio transmission state"
vector 121 NetworkA.sensor2.wlan[0].radio packetDropped:vector(packetBytes) ETV
attr interpolationmode none
attr recordingmode vector(packetBytes)
attr title "packets dropped, packetBytes"
vector 122 NetworkA.sensor2.wlan[0] packetDropInterfaceDown:vector(packetBytes) ETV
attr interpolationmode none
attr recordingmode vector(packetBytes)
attr source packetDropReasonIsInterfaceDown(packetDropped)
attr title "packet drops: interface down, packetBytes"
vector 123 NetworkA.sensor2.wlan[0] packetDropNoCarrier:vector(packetBytes) ETV
attr interpolationmode none
attr recordingmode vector(packetBytes)
attr source packetDropReasonIsNoCarrier(packetDropped)
attr title "packet drops: no carrier, packetBytes"
vector 124 NetworkA.sensor2.ipv4.ip packetDropAddressResolutionFailed:vector(packetBytes) ETV
attr interpolationmode none
attr recordingmode vector(packetBytes)
attr source packetDropReasonIsAddressResolutionFailed(packetDropped)
attr title "packet drop: address resolution failed, packetBytes"
vector 125 NetworkA.sensor2.ipv4.ip packetDropHopLimitReached:vector(packetBytes) ETV
attr interpolationmode none
attr recordingmode vector(packetBytes)
attr source packetDropReasonIsHopLimitReached(packetDropped)
attr title "packet drop: hop limit reached, packetBytes"
vector 126 NetworkA.sensor2.ipv4.ip packetDropForwardingDisabled:vector(packetBytes) ETV
attr interpolationmode none
attr recordingmode vector(packetBytes)
attr source packetDropReasonIsForwardingDisabled(packetDropped)
attr title "packet drop: forwarding disabled, packetBytes"
vector 127 NetworkA.sensor2.ipv4.ip packetDropNoInterfaceFound:vector(packetBytes) ETV
attr interpolationmode none
attr recordingmode vector(packetBytes)
attr source packetDropReasonIsNoInterfaceFound(packetDropped)
attr title "packet drop: no interface found, packetBytes"
vector 128 NetworkA.sensor2.ipv4.ip packetDropNoRouteFound:vector(packetBytes) ETV
attr interpolationmode none
attr recordingmode vector(packetBytes)
attr source packetDropReasonIsNoRouteFound(packetDropped)
attr title "packet drop: no route found, packetBytes"
vector 129 NetworkA.sensor2.ipv4.ip packetDropUndefined:vector(packetBytes) ETV
attr interpolationmode none
attr recordingmode vector(packetBytes)
attr source packetDropReasonIsUndefined(packetDropped)
attr title "packet drop: undefined, packetBytes"
vector 130 NetworkA.sensor2.udp packetSent:vector(packetBytes) ETV
attr interpolationmode none
attr recordingmode vector(packetBytes)
attr source packetSent
attr title "packets sent, packetBytes"
vector 131 NetworkA.sensor2.udp packetReceived:vector(packetBytes) ETV
attr interpolationmode none
attr recordingmode vector(packetBytes)
attr source packetReceived
attr title "packets received, packetBytes"
vector 132 NetworkA.sensor2.udp passedUpPk:vector(count) ETV
attr interpolationmode none
attr recordingmode vector(count)
attr source packetSentToUpper
attr title "packets passed up, count"
vector 133 NetworkA.sensor2.udp droppedPkWrongPort:vector(count) ETV
attr interpolationmode none
attr recordingmode vector(count)
attr source packetDropReasonIsNoPortFound(packetDropped)
attr title "packets dropped (wrong port), count"
vector 134 NetworkA.sensor2.udp droppedPkBadChecksum:vector(count) ETV
attr interpolationmode none
attr recordingmode vector(count)
attr source packetDropReasonIsIncorrectlyReceived(packetDropped)
attr title "packets dropped (checksum error), count"
vector 135 NetworkA.sensor2.app[0] packetReceived:vector(packetBytes) ETV
attr interpolationmode none
attr recordingmode vector(packetBytes)
attr source packetReceived
attr title "packets received, packetBytes"
vector 136 NetworkA.sensor2.app[0] throughput:vector ETV
attr recordingmode vector
attr source throughput(packetReceived)
attr title throughput
attr unit bps
vector 137 NetworkA.sensor2.app[0] packetSent:vector(packetBytes) ETV
attr interpolationmode none
attr recordingmode vector(packetBytes)
attr source packetSent
attr title "packets sent, packetBytes"
vector 138 NetworkA.sensor2.app[0] rcvdPkLifetime:vector ETV
attr interpolationmode none
attr recordingmode vector
attr source dataAge(packetReceived)
attr title "received packet lifetime"
attr unit s
vector 139 NetworkA.sensor2.app[0] rcvdPkSeqNo:vector ETV
attr interpolationmode none
attr recordingmode vector
attr source appPkSeqNo(packetReceived)
attr title "received packet sequence number"
vector 140 NetworkA.sensor2.app[1] packetReceived:vector(packetBytes) ETV
attr interpolationmode none
attr recordingmode vector(packetBytes)
attr source packetReceived
attr title "packets received, packetBytes"
vector 141 NetworkA.sensor2.app[1] throughput:vector ETV
attr recordingmode vector
attr source throughput(packetReceived)
attr title throughput
attr unit bps
vector 142 NetworkA.sensor2.app[1] endToEndDelay:vector ETV
attr interpolationmode none
attr recordingmode vector
attr source dataAge(packetReceived)
attr title "end-to-end delay"
attr unit s
vector 143 NetworkA.sensor2.app[1] rcvdPkSeqNo:vector ETV
attr interpolationmode none
attr recordingmode vector
attr source appPkSeqNo(packetReceived)
attr title "received packet sequence number"
vector 144 NetworkA.sensor3.energyStorage powerConsumption:vector ETV
attr interpolationmode sample-hold
attr recordingmode vector
attr source powerConsumptionChanged
attr title "Power consumption"
attr unit W
vector 145 NetworkA.sensor3.energyStorage powerGeneration:vector ETV
attr interpolationmode sample-hold
attr recordingmode vector
attr source powerGenerationChanged
attr title "Power generation"
attr unit W
vector 146 NetworkA.sensor3.energyStorage residualEnergyCapacity:vector ETV
attr interpolationmode linear
attr recordingmode vector
attr source residualEnergyCapacityChanged
attr title "Residual energy capacity"
attr unit J
vector 147 NetworkA.sensor3.lo[0].lo rcvdPkFromHl:vector(packetBytes) ETV
attr interpolationmode none
attr recordingmode vector(packetBytes)
attr source packetReceivedFromUpper
attr title "packets received from higher layer, packetBytes"
vector 148 NetworkA.sensor3.lo[0].lo passedUpPk:vector(packetBytes) ETV
attr interpolationmode none
attr recordingmode vector(packetBytes)
attr source packetSentToUpper
attr title "packets passed to higher layer, packetBytes"
vector 149 NetworkA.sensor3.lo[0] packetDropInterfaceDown:vector(packetBytes) ETV
attr interpolationmode none
attr recordingmode vector(packetBytes)
attr source packetDropReasonIsInterfaceDown(packetDropped)
attr title "packet drops: interface down, packetBytes"
vector 150 NetworkA.sensor3.lo[0] packetDropNoCarrier:vector(packetBytes) ETV
attr interpolationmode none
attr recordingmode vector(packetBytes)
attr source packetDropReasonIsNoCarrier(packetDropped)
attr title "packet drops: no carrier, packetBytes"
vector 151 NetworkA.sensor3.wlan[0].queue queueLength:vector ETV
attr autoWarmupFilter false
attr interpolationmode sample-hold
attr recordingmode vector
attr source "warmup(atomic(constant0(packetPushEnded) + count(packetPushStarted) - count(packetPulled) - count(packetRemoved) - count(packetDropped)))"
attr title "queue length"
attr unit pk
vector 152 NetworkA.sensor3.wlan[0].queue queueBitLength:vector ETV
attr autoWarmupFilter false
attr interpolationmode sample-hold
attr recordingmode vector
attr source "warmup(atomic(constant0(packetPushEnded) + sum(packetLength(packetPushStarted)) - sum(packetLength(packetPulled)) - sum(packetLength(packetRemoved)) - sum(packetLength(packetDropped))))"
attr title "queue bit length"
attr unit b
vector 153 NetworkA.sensor3.wlan[0].queue queueingTime:vector ETV
attr interpolationmode none
attr recordingmode vector
attr source queueingTime(packetPulled)
attr title "queueing times"
attr unit s
vector 154 NetworkA.sensor3.wlan[0].queue incomingPacketLengths:vector ETV
attr interpolationmode none
attr recordingmode vector
attr source packetLength(packetPushStarted)
attr title "incoming packet lengths"
attr unit b
vector 155 NetworkA.sensor3.wlan[0].queue incomingDataRate:vector ETV
attr interpolationmode linear
attr recordingmode vector
attr source throughput(packetPushStarted)
attr title "incoming datarate"
attr unit bps
vector 156 NetworkA.sensor3.wlan[0].queue outgoingPacketLengths:vector ETV
attr interpolationmode none
attr recordingmode vector
attr source packetLength(packetPulled)
attr title "outgoing packet lengths"
attr unit b
vector 157 NetworkA.sensor3.wlan[0].queue outgoingDataRate:vector ETV
attr interpolationmode linear
attr recordingmode vector
attr source throughput(packetPulled)
attr title "outgoing datarate"
attr unit bps
vector 158 NetworkA.sensor3.wlan[0].queue droppedPacketLengthsQueueOverflow:vector ETV
attr interpolationmode none
attr recordingmode vector
attr source packetLength(packetDropReasonIsQueueOverflow(packetDropped))
attr title "dropped packet lengths: queue overflow"
attr unit b
vector 159 NetworkA.sensor3.wlan[0].queue flowQueueingTime:vector ETV
attr interpolationmode none
attr recordingmode vector
attr source queueingTime(demuxFlow(packetPulled))
attr title "flow queueing times"
attr unit s
vector 160 NetworkA.sensor3.wlan[0].queue flowIncomingDataRate:vector ETV
attr interpolationmode linear
attr recordingmode vector
attr source throughput(flowPacketLength(demuxFlow(packetPushStarted)))
attr title "flow specific incoming data rate"
attr unit bps
vector 161 NetworkA.sensor3.wlan[0].queue flowOutgoingDataRate:vector ETV
attr interpolationmode linear
attr recordingmode vector
attr source throughput(flowPacketLength(demuxFlow(packetPulled)))
attr title "flow specific outgoing data rate"
attr unit bps
vector 162 NetworkA.sensor3.wlan[0].mac packetDropIncorrectlyReceived:vector(packetBytes) ETV
attr interpolationmode none
attr recordingmode vector(packetBytes)
attr source packetDropReasonIsIncorrectlyReceived(packetDropped)
attr title "packet drop: incorrectly received, packetBytes"
vector 163 NetworkA.sensor3.wlan[0].mac packetDropNotAddressedToUs:vector(packetBytes) ETV
attr interpolationmode none
attr recordingmode vector(packetBytes)
attr source packetDropReasonIsNotAddressedToUs(packetDropped)
attr title "packet drop: not addressed to us, packetBytes"
vector 164 NetworkA.sensor3.wlan[0].mac packetDropQueueOverflow:vector(packetBytes) ETV
attr interpolationmode none
attr recordingmode vector(packetBytes)
attr source packetDropReasonIsQueueOverflow(packetDropped)
attr title "packet drop: queue overflow, packetBytes"
vector 165 NetworkA.sensor3.wlan[0].radio.energyConsumer powerConsumption:vector ETV
attr interpolationmode sample-hold
attr recordingmode vector
attr source powerConsumptionChanged
attr title "Power consumption"
attr unit W
vector 166 NetworkA.sensor3.wlan[0].radio radioMode:vector ETV
attr interpolationmode sample-hold
attr recordingmode vector
attr source radioModeChanged
attr title "Radio mode"
vector 167 NetworkA.sensor3.wlan[0].radio receptionState:vector ETV
attr interpolationmode sample-hold
attr recordingmode vector
attr source receptionStateChanged
attr title "Radio reception state"
vector 168 NetworkA.sensor3.wlan[0].radio transmissionState:vector ETV
attr interpolationmode sample-hold
attr recordingmode vector
attr source transmissionStateChanged
attr title "Radio transmission state"
vector 169 NetworkA.sensor3.wlan[0].radio packetDropped:vector(packetBytes) ETV
attr interpolationmode none
attr recordingmode vector(packetBytes)
attr title "packets dropped, packetBytes"
vector 170 NetworkA.sensor3.wlan[0] packetDropInterfaceDown:vector(packetBytes) ETV
attr interpolationmode none
attr recordingmode vector(packetBytes)
attr source packetDropReasonIsInterfaceDown(packetDropped)
attr title "packet drops: interface down, packetBytes"
vector 171 NetworkA.sensor3.wlan[0] packetDropNoCarrier:vector(packetBytes) ETV
attr interpolationmode none
attr recordingmode vector(packetBytes)
attr source packetDropReasonIsNoCarrier(packetDropped)
attr title "packet drops: no carrier, packetBytes"
vector 172 NetworkA.sensor3.ipv4.ip packetDropAddressResolutionFailed:vector(packetBytes) ETV
attr interpolationmode none
attr recordingmode vector(packetBytes)
attr source packetDropReasonIsAddressResolutionFailed(packetDropped)
attr title "packet drop: address resolution failed, packetBytes"
vector 173 NetworkA.sensor3.ipv4.ip packetDropHopLimitReached:vector(packetBytes) ETV
attr interpolationmode none
attr recordingmode vector(packetBytes)
attr source packetDropReasonIsHopLimitReached(packetDropped)
attr title "packet drop: hop limit reached, packetBytes"
vector 174 NetworkA.sensor3.ipv4.ip packetDropForwardingDisabled:vector(packetBytes) ETV
attr interpolationmode none
attr recordingmode vector(packetBytes)
attr source packetDropReasonIsForwardingDisabled(packetDropped)
attr title "packet drop: forwarding disabled, packetBytes"
vector 175 NetworkA.sensor3.ipv4.ip packetDropNoInterfaceFound:vector(packetBytes) ETV
attr interpolationmode none
attr recordingmode vector(packetBytes)
attr source packetDropReasonIsNoInterfaceFound(packetDropped)
attr title "packet drop: no interface found, packetBytes"
vector 176 NetworkA.sensor3.ipv4.ip packetDropNoRouteFound:vector(packetBytes) ETV
attr interpolationmode none
attr recordingmode vector(packetBytes)
attr source packetDropReasonIsNoRouteFound(packetDropped)
attr title "packet drop: no route found, packetBytes"
vector 177 NetworkA.sensor3.ipv4.ip packetDropUndefined:vector(packetBytes) ETV
attr interpolationmode none
attr recordingmode vector(packetBytes)
attr source packetDropReasonIsUndefined(packetDropped)
attr title "packet drop: undefined, packetBytes"
vector 178 NetworkA.sensor3.udp packetSent:vector(packetBytes) ETV
attr interpolationmode none
attr recordingmode vector(packetBytes)
attr source packetSent
attr title "packets sent, packetBytes"
vector 179 NetworkA.sensor3.udp packetReceived:vector(packetBytes) ETV
attr interpolationmode none
attr recordingmode vector(packetBytes)
attr source packetReceived
attr title "packets received, packetBytes"
vector 180 NetworkA.sensor3.udp passedUpPk:vector(count) ETV
attr interpolationmode none
attr recordingmode vector(count)
attr source packetSentToUpper
attr title "packets passed up, count"
vector 181 NetworkA.sensor3.udp droppedPkWrongPort:vector(count) ETV
attr interpolationmode none
attr recordingmode vector(count)
attr source packetDropReasonIsNoPortFound(packetDropped)
attr title "packets dropped (wrong port), count"
vector 182 NetworkA.sensor3.udp droppedPkBadChecksum:vector(count) ETV
attr interpolationmode none
attr recordingmode vector(count)
attr source packetDropReasonIsIncorrectlyReceived(packetDropped)
attr title "packets dropped (checksum error), count"
vector 183 NetworkA.sensor3.app[0] packetReceived:vector(packetBytes) ETV
attr interpolationmode none
attr recordingmode vector(packetBytes)
attr source packetReceived
attr title "packets received, packetBytes"
vector 184 NetworkA.sensor3.app[0] throughput:vector ETV
attr recordingmode vector
attr source throughput(packetReceived)
attr title throughput
attr unit bps
vector 185 NetworkA.sensor3.app[0] packetSent:vector(packetBytes) ETV
attr interpolationmode none
attr recordingmode vector(packetBytes)
attr source packetSent
attr title "packets sent, packetBytes"
vector 186 NetworkA.sensor3.app[0] rcvdPkLifetime:vector ETV
attr interpolationmode none
attr recordingmode vector
attr source dataAge(packetReceived)
attr title "received packet lifetime"
attr unit s
vector 187 NetworkA.sensor3.app[0] rcvdPkSeqNo:vector ETV
attr interpolationmode none
attr recordingmode vector
attr source appPkSeqNo(packetReceived)
attr title "received packet sequence number"
vector 188 NetworkA.sensor3.app[1] packetReceived:vector(packetBytes) ETV
attr interpolationmode none
attr recordingmode vector(packetBytes)
attr source packetReceived
attr title "packets received, packetBytes"
vector 189 NetworkA.sensor3.app[1] throughput:vector ETV
attr recordingmode vector
attr source throughput(packetReceived)
attr title throughput
attr unit bps
vector 190 NetworkA.sensor3.app[1] endToEndDelay:vector ETV
attr interpolationmode none
attr recordingmode vector
attr source dataAge(packetReceived)
attr title "end-to-end delay"
attr unit s
vector 191 NetworkA.sensor3.app[1] rcvdPkSeqNo:vector ETV
attr interpolationmode none
attr recordingmode vector
attr source appPkSeqNo(packetReceived)
attr title "received packet sequence number"
vector 192 NetworkA.gateway.energyStorage powerConsumption:vector ETV
attr interpolationmode sample-hold
attr recordingmode vector
attr source powerConsumptionChanged
attr title "Power consumption"
attr unit W
vector 193 NetworkA.gateway.energyStorage powerGeneration:vector ETV
attr interpolationmode sample-hold
attr recordingmode vector
attr source powerGenerationChanged
attr title "Power generation"
attr unit W
vector 194 NetworkA.gateway.energyStorage residualEnergyCapacity:vector ETV
attr interpolationmode linear
attr recordingmode vector
attr source residualEnergyCapacityChanged
attr title "Residual energy capacity"
attr unit J
vector 195 NetworkA.gateway.ethernet encapPk:vector(packetBytes) ETV
attr interpolationmode none
attr recordingmode vector(packetBytes)
attr source encapPk
attr title "packets encapsulated, packetBytes"
vector 196 NetworkA.gateway.ethernet decapPk:vector(packetBytes) ETV
attr interpolationmode none
attr recordingmode vector(packetBytes)
attr source decapPk
attr title "packets decapsulated, packetBytes"
vector 197 NetworkA.gateway.ethernet pauseSent:vector ETV
attr recordingmode vector
attr title "pause sent"
vector 198 NetworkA.gateway.lo[0].lo rcvdPkFromHl:vector(packetBytes) ETV
attr interpolationmode none
attr recordingmode vector(packetBytes)
attr source packetReceivedFromUpper
attr title "packets received from higher layer, packetBytes"
vector 199 NetworkA.gateway.lo[0].lo passedUpPk:vector(packetBytes) ETV
attr interpolationmode none
attr recordingmode vector(packetBytes)
attr source packetSentToUpper
attr title "packets passed to higher layer, packetBytes"
vector 200 NetworkA.gateway.lo[0] packetDropInterfaceDown:vector(packetBytes) ETV
attr interpolationmode none
attr recordingmode vector(packetBytes)
attr source packetDropReasonIsInterfaceDown(packetDropped)
attr title "packet drops: interface down, packetBytes"
vector 201 NetworkA.gateway.lo[0] packetDropNoCarrier:vector(packetBytes) ETV
attr interpolationmode none
attr recordingmode vector(packetBytes)
attr source packetDropReasonIsNoCarrier(packetDropped)
attr title "packet drops: no carrier, packetBytes"
vector 202 NetworkA.gateway.wlan[0].queue queueLength:vector ETV
attr autoWarmupFilter false
attr interpolationmode sample-hold
attr recordingmode vector
attr source "warmup(atomic(constant0(packetPushEnded) + count(packetPushStarted) - count(packetPulled) - count(packetRemoved) - count(packetDropped)))"
attr title "queue length"
attr unit pk
vector 203 NetworkA.gateway.wlan[0].queue queueBitLength:vector ETV
attr autoWarmupFilter false
attr interpolationmode sample-hold
attr recordingmode vector
attr source "warmup(atomic(constant0(packetPushEnded) + sum(packetLength(packetPushStarted)) - sum(packetLength(packetPulled)) - sum(packetLength(packetRemoved)) - sum(packetLength(packetDropped))))"
attr title "queue bit length"
attr unit b
vector 204 NetworkA.gateway.wlan[0].queue queueingTime:vector ETV
attr interpolationmode none
attr recordingmode vector
attr source queueingTime(packetPulled)
attr title "queueing times"
attr unit s
vector 205 NetworkA.gateway.wlan[0].queue incomingPacketLengths:vector ETV
attr interpolationmode none
attr recordingmode vector
attr source packetLength(packetPushStarted)
attr title "incoming packet lengths"
attr unit b
vector 206 NetworkA.gateway.wlan[0].queue incomingDataRate:vector ETV
attr interpolationmode linear
attr recordingmode vector
attr source throughput(packetPushStarted)
attr title "incoming datarate"
attr unit bps
vector 207 NetworkA.gateway.wlan[0].queue outgoingPacketLengths:vector ETV
attr interpolationmode none
attr recordingmode vector
attr source packetLength(packetPulled)
attr title "outgoing packet lengths"
attr unit b
vector 208 NetworkA.gateway.wlan[0].queue outgoingDataRate:vector ETV
attr interpolationmode linear
attr recordingmode vector
attr source throughput(packetPulled)
attr title "outgoing datarate"
attr unit bps
vector 209 NetworkA.gateway.wlan[0].queue droppedPacketLengthsQueueOverflow:vector ETV
attr interpolationmode none
attr recordingmode vector
attr source packetLength(packetDropReasonIsQueueOverflow(packetDropped))
attr title "dropped packet lengths: queue overflow"
attr unit b
vector 210 NetworkA.gateway.wlan[0].queue flowQueueingTime:vector ETV
attr interpolationmode none
attr recordingmode vector
attr source queueingTime(demuxFlow(packetPulled))
attr title "flow queueing times"
attr unit s
vector 211 NetworkA.gateway.wlan[0].queue flowIncomingDataRate:vector ETV
attr interpolationmode linear
attr recordingmode vector
attr source throughput(flowPacketLength(demuxFlow(packetPushStarted)))
attr title "flow specific incoming data rate"
attr unit bps
vector 212 NetworkA.gateway.wlan[0].queue flowOutgoingDataRate:vector ETV
attr interpolationmode linear
attr recordingmode vector
attr source throughput(flowPacketLength(demuxFlow(packetPulled)))
attr title "flow specific outgoing data rate"
attr unit bps
vector 213 NetworkA.gateway.wlan[0].mac packetDropIncorrectlyReceived:vector(packetBytes) ETV
attr interpolationmode none
attr recordingmode vector(packetBytes)
attr source packetDropReasonIsIncorrectlyReceived(packetDropped)
attr title "packet drop: incorrectly received, packetBytes"
vector 214 NetworkA.gateway.wlan[0].mac packetDropNotAddressedToUs:vector(packetBytes) ETV
attr interpolationmode none
attr recordingmode vector(packetBytes)
attr source packetDropReasonIsNotAddressedToUs(packetDropped)
attr title "packet drop: not addressed to us, packetBytes"
vector 215 NetworkA.gateway.wlan[0].mac packetDropQueueOverflow:vector(packetBytes) ETV
attr interpolationmode none
attr recordingmode vector(packetBytes)
attr source packetDropReasonIsQueueOverflow(packetDropped)
attr title "packet drop: queue overflow, packetBytes"
vector 216 NetworkA.gateway.wlan[0].radio.energyConsumer powerConsumption:vector ETV
attr interpolationmode sample-hold
attr recordingmode vector
attr source powerConsumptionChanged
attr title "Power consumption"
attr unit W
vector 217 NetworkA.gateway.wlan[0].radio radioMode:vector ETV
attr interpolationmode sample-hold
attr recordingmode vector
attr source radioModeChanged
attr title "Radio mode"
vector 218 NetworkA.gateway.wlan[0].radio receptionState:vector ETV
attr interpolationmode sample-hold
attr recordingmode vector
attr source receptionStateChanged
attr title "Radio reception state"
vector 219 NetworkA.gateway.wlan[0].radio transmissionState:vector ETV
attr interpolationmode sample-hold
attr recordingmode vector
attr source transmissionStateChanged
attr title "Radio transmission state"
vector 220 NetworkA.gateway.wlan[0].radio packetDropped:vector(packetBytes) ETV
attr interpolationmode none
attr recordingmode vector(packetBytes)
attr title "packets dropped, packetBytes"
vector 221 NetworkA.gateway.wlan[0] packetDropInterfaceDown:vector(packetBytes) ETV
attr interpolationmode none
attr recordingmode vector(packetBytes)
attr source packetDropReasonIsInterfaceDown(packetDropped)
attr title "packet drops: interface down, packetBytes"
vector 222 NetworkA.gateway.wlan[0] packetDropNoCarrier:vector(packetBytes) ETV
attr interpolationmode none
attr recordingmode vector(packetBytes)
attr source packetDropReasonIsNoCarrier(packetDropped)
attr title "packet drops: no carrier, packetBytes"
vector 223 NetworkA.gateway.eth[0].queue queueLength:vector ETV
attr autoWarmupFilter false
attr interpolationmode sample-hold
attr recordingmode vector
attr source "warmup(atomic(constant0(packetPushEnded) + count(packetPushStarted) - count(packetPulled) - count(packetRemoved) - count(packetDropped)))"
attr title "queue length"
attr unit pk
vector 224 NetworkA.gateway.eth[0].queue queueBitLength:vector ETV
attr autoWarmupFilter false
attr interpolationmode sample-hold
attr recordingmode vector
attr source "warmup(atomic(constant0(packetPushEnded) + sum(packetLength(packetPushStarted)) - sum(packetLength(packetPulled)) - sum(packetLength(packetRemoved)) - sum(packetLength(packetDropped))))"
attr title "queue bit length"
attr unit b
vector 225 NetworkA.gateway.eth[0].queue queueingTime:vector ETV
attr interpolationmode none
attr recordingmode vector
attr source queueingTime(packetPulled)
attr title "queueing times"
attr unit s
vector 226 NetworkA.gateway.eth[0].queue incomingPacketLengths:vector ETV
attr interpolationmode none
attr recordingmode vector
attr source packetLength(packetPushStarted)
attr title "incoming packet lengths"
attr unit b
vector 227 NetworkA.gateway.eth[0].queue incomingDataRate:vector ETV
attr interpolationmode linear
attr recordingmode vector
attr source throughput(packetPushStarted)
attr title "incoming datarate"
attr unit bps
vector 228 NetworkA.gateway.eth[0].queue outgoingPacketLengths:vector ETV
attr interpolationmode none
attr recordingmode vector
attr source packetLength(packetPulled)
attr title "outgoing packet lengths"
attr unit b
vector 229 NetworkA.gateway.eth[0].queue outgoingDataRate:vector ETV
attr interpolationmode linear
attr recordingmode vector
attr source throughput(packetPulled)
attr title "outgoing datarate"
attr unit bps
vector 230 NetworkA.gateway.eth[0].queue droppedPacketLengthsQueueOverflow:vector ETV
attr interpolationmode none
attr recordingmode vector
attr source packetLength(packetDropReasonIsQueueOverflow(packetDropped))
attr title "dropped packet lengths: queue overflow"
attr unit b
vector 231 NetworkA.gateway.eth[0].queue flowQueueingTime:vector ETV
attr interpolationmode none
attr recordingmode vector
attr source queueingTime(demuxFlow(packetPulled))
attr title "flow queueing times"
attr unit s
vector 232 NetworkA.gateway.eth[0].queue flowIncomingDataRate:vector ETV
attr interpolationmode linear
attr recordingmode vector
attr source throughput(flowPacketLength(demuxFlow(packetPushStarted)))
attr title "flow specific incoming data rate"
attr unit bps
vector 233 NetworkA.gateway.eth[0].queue flowOutgoingDataRate:vector ETV
attr interpolationmode linear
attr recordingmode vector
attr source throughput(flowPacketLength(demuxFlow(packetPulled)))
attr title "flow specific outgoing data rate"
attr unit bps
vector 234 NetworkA.gateway.eth[0].mac txPk:vector(packetBytes) ETV
attr interpolationmode none
attr recordingmode vector(packetBytes)
attr source packetSentToLower
attr title "packets transmitted, packetBytes"
vector 235 NetworkA.gateway.eth[0].mac rxPkOk:vector(packetBytes) ETV
attr interpolationmode none
attr recordingmode vector(packetBytes)
attr source rxPkOk
attr title "packets received OK, packetBytes"
vector 236 NetworkA.gateway.eth[0].mac passedUpPk:vector(packetBytes) ETV
attr interpolationmode none
attr recordingmode vector(packetBytes)
attr source packetSentToUpper
attr title "packets passed to higher layer, packetBytes"
vector 237 NetworkA.gateway.eth[0].mac txPausePkUnits:vector ETV
attr interpolationmode none
attr recordingmode vector
attr title "pause units sent"
vector 238 NetworkA.gateway.eth[0].mac rxPausePkUnits:vector ETV
attr interpolationmode none
attr recordingmode vector
attr title "pause units received"
vector 239 NetworkA.gateway.eth[0].mac packetReceivedFromUpper:vector(packetBytes) ETV
attr interpolationmode none
attr recordingmode vector(packetBytes)
attr source packetReceivedFromUpper
attr title "packet bytes from higher layer, packetBytes"
vector 240 NetworkA.gateway.eth[0].mac packetDropIncorrectlyReceived:vector(packetBytes) ETV
attr interpolationmode none
attr recordingmode vector(packetBytes)
attr source packetDropReasonIsIncorrectlyReceived(packetDropped)
attr title "packet drop: incorrectly received, packetBytes"
vector 241 NetworkA.gateway.eth[0].mac packetDropInterfaceDown:vector(packetBytes) ETV
attr interpolationmode none
attr recordingmode vector(packetBytes)
attr source packetDropReasonIsInterfaceDown(packetDropped)
attr title "packet drop: interface down, packetBytes"
vector 242 NetworkA.gateway.eth[0].mac packetDropNotAddressedToUs:vector(packetBytes) ETV
attr interpolationmode none
attr recordingmode vector(packetBytes)
attr source packetDropReasonIsNotAddressedToUs(packetDropped)
attr title "packet drop: not addressed to us, packetBytes"
vector 243 NetworkA.gateway.eth[0] packetDropInterfaceDown:vector(packetBytes) ETV
attr interpolationmode none
attr recordingmode vector(packetBytes)
attr source packetDropReasonIsInterfaceDown(packetDropped)
attr title "packet drops: interface down, packetBytes"
vector 244 NetworkA.gateway.eth[0] packetDropNoCarrier:vector(packetBytes) ETV
attr interpolationmode none
attr recordingmode vector(packetBytes)
attr source packetDropReasonIsNoCarrier(packetDropped)
attr title "packet drops: no carrier, packetBytes"
vector 245 NetworkA.gateway.ipv4.ip packetDropAddressResolutionFailed:vector(packetBytes) ETV
attr interpolationmode none
attr recordingmode vector(packetBytes)
attr source packetDropReasonIsAddressResolutionFailed(packetDropped)
attr title "packet drop: address resolution failed, packetBytes"
vector 246 NetworkA.gateway.ipv4.ip packetDropHopLimitReached:vector(packetBytes) ETV
attr interpolationmode none
attr recordingmode vector(packetBytes)
attr source packetDropReasonIsHopLimitReached(packetDropped)
attr title "packet drop: hop limit reached, packetBytes"
vector 247 NetworkA.gateway.ipv4.ip packetDropForwardingDisabled:vector(packetBytes) ETV
attr interpolationmode none
attr recordingmode vector(packetBytes)
attr source packetDropReasonIsForwardingDisabled(packetDropped)
attr title "packet drop: forwarding disabled, packetBytes"
vector 248 NetworkA.gateway.ipv4.ip packetDropNoInterfaceFound:vector(packetBytes) ETV
attr interpolationmode none
attr recordingmode vector(packetBytes)
attr source packetDropReasonIsNoInterfaceFound(packetDropped)
attr title "packet drop: no interface found, packetBytes"
vector 249 NetworkA.gateway.ipv4.ip packetDropNoRouteFound:vector(packetBytes) ETV
attr interpolationmode none
attr recordingmode vector(packetBytes)
attr source packetDropReasonIsNoRouteFound(packetDropped)
attr title "packet drop: no route found, packetBytes"
vector 250 NetworkA.gateway.ipv4.ip packetDropUndefined:vector(packetBytes) ETV
attr interpolationmode none
attr recordingmode vector(packetBytes)
attr source packetDropReasonIsUndefined(packetDropped)
attr title "packet drop: undefined, packetBytes"
vector 251 NetworkA.gateway.udp packetSent:vector(packetBytes) ETV
attr interpolationmode none
attr recordingmode vector(packetBytes)
attr source packetSent
attr title "packets sent, packetBytes"
vector 252 NetworkA.gateway.udp packetReceived:vector(packetBytes) ETV
attr interpolationmode none
attr recordingmode vector(packetBytes)
attr source packetReceived
attr title "packets received, packetBytes"
vector 253 NetworkA.gateway.udp passedUpPk:vector(count) ETV
attr interpolationmode none
attr recordingmode vector(count)
attr source packetSentToUpper
attr title "packets passed up, count"
vector 254 NetworkA.gateway.udp droppedPkWrongPort:vector(count) ETV
attr interpolationmode none
attr recordingmode vector(count)
attr source packetDropReasonIsNoPortFound(packetDropped)
attr title "packets dropped (wrong port), count"
vector 255 NetworkA.gateway.udp droppedPkBadChecksum:vector(count) ETV
attr interpolationmode none
attr recordingmode vector(count)
attr source packetDropReasonIsIncorrectlyReceived(packetDropped)
attr title "packets dropped (checksum error), count"
vector 256 NetworkA.server.ethernet encapPk:vector(packetBytes) ETV
attr interpolationmode none
attr recordingmode vector(packetBytes)
attr source encapPk
attr title "packets encapsulated, packetBytes"
vector 257 NetworkA.server.ethernet decapPk:vector(packetBytes) ETV
attr interpolationmode none
attr recordingmode vector(packetBytes)
attr source decapPk
attr title "packets decapsulated, packetBytes"
vector 258 NetworkA.server.ethernet pauseSent:vector ETV
attr recordingmode vector
attr title "pause sent"
vector 259 NetworkA.server.lo[0].lo rcvdPkFromHl:vector(packetBytes) ETV
attr interpolationmode none
attr recordingmode vector(packetBytes)
attr source packetReceivedFromUpper
attr title "packets received from higher layer, packetBytes"
vector 260 NetworkA.server.lo[0].lo passedUpPk:vector(packetBytes) ETV
attr interpolationmode none
attr recordingmode vector(packetBytes)
attr source packetSentToUpper
attr title "packets passed to higher layer, packetBytes"
vector 261 NetworkA.server.lo[0] packetDropInterfaceDown:vector(packetBytes) ETV
attr interpolationmode none
attr recordingmode vector(packetBytes)
attr source packetDropReasonIsInterfaceDown(packetDropped)
attr title "packet drops: interface down, packetBytes"
vector 262 NetworkA.server.lo[0] packetDropNoCarrier:vector(packetBytes) ETV
attr interpolationmode none
attr recordingmode vector(packetBytes)
attr source packetDropReasonIsNoCarrier(packetDropped)
attr title "packet drops: no carrier, packetBytes"
vector 263 NetworkA.server.eth[0].queue queueLength:vector ETV
attr autoWarmupFilter false
attr interpolationmode sample-hold
attr recordingmode vector
attr source "warmup(atomic(constant0(packetPushEnded) + count(packetPushStarted) - count(packetPulled) - count(packetRemoved) - count(packetDropped)))"
attr title "queue length"
attr unit pk
vector 264 NetworkA.server.eth[0].queue queueBitLength:vector ETV
attr autoWarmupFilter false
attr interpolationmode sample-hold
attr recordingmode vector
attr source "warmup(atomic(constant0(packetPushEnded) + sum(packetLength(packetPushStarted)) - sum(packetLength(packetPulled)) - sum(packetLength(packetRemoved)) - sum(packetLength(packetDropped))))"
attr title "queue bit length"
attr unit b
vector 265 NetworkA.server.eth[0].queue queueingTime:vector ETV
attr interpolationmode none
attr recordingmode vector
attr source queueingTime(packetPulled)
attr title "queueing times"
attr unit s
vector 266 NetworkA.server.eth[0].queue incomingPacketLengths:vector ETV
attr interpolationmode none
attr recordingmode vector
attr source packetLength(packetPushStarted)
attr title "incoming packet lengths"
attr unit b
vector 267 NetworkA.server.eth[0].queue incomingDataRate:vector ETV
attr interpolationmode linear
attr recordingmode vector
attr source throughput(packetPushStarted)
attr title "incoming datarate"
attr unit bps
vector 268 NetworkA.server.eth[0].queue outgoingPacketLengths:vector ETV
attr interpolationmode none
attr recordingmode vector
attr source packetLength(packetPulled)
attr title "outgoing packet lengths"
attr unit b
vector 269 NetworkA.server.eth[0].queue outgoingDataRate:vector ETV
attr interpolationmode linear
attr recordingmode vector
attr source throughput(packetPulled)
attr title "outgoing datarate"
attr unit bps
vector 270 NetworkA.server.eth[0].queue droppedPacketLengthsQueueOverflow:vector ETV
attr interpolationmode none
attr recordingmode vector
attr source packetLength(packetDropReasonIsQueueOverflow(packetDropped))
attr title "dropped packet lengths: queue overflow"
attr unit b
vector 271 NetworkA.server.eth[0].queue flowQueueingTime:vector ETV
attr interpolationmode none
attr recordingmode vector
attr source queueingTime(demuxFlow(packetPulled))
attr title "flow queueing times"
attr unit s
vector 272 NetworkA.server.eth[0].queue flowIncomingDataRate:vector ETV
attr interpolationmode linear
attr recordingmode vector
attr source throughput(flowPacketLength(demuxFlow(packetPushStarted)))
attr title "flow specific incoming data rate"
attr unit bps
vector 273 NetworkA.server.eth[0].queue flowOutgoingDataRate:vector ETV
attr interpolationmode linear
attr recordingmode vector
attr source throughput(flowPacketLength(demuxFlow(packetPulled)))
attr title "flow specific outgoing data rate"
attr unit bps
vector 274 NetworkA.server.eth[0].mac txPk:vector(packetBytes) ETV
attr interpolationmode none
attr recordingmode vector(packetBytes)
attr source packetSentToLower
attr title "packets transmitted, packetBytes"
vector 275 NetworkA.server.eth[0].mac rxPkOk:vector(packetBytes) ETV
attr interpolationmode none
attr recordingmode vector(packetBytes)
attr source rxPkOk
attr title "packets received OK, packetBytes"
vector 276 NetworkA.server.eth[0].mac passedUpPk:vector(packetBytes) ETV
attr interpolationmode none
attr recordingmode vector(packetBytes)
attr source packetSentToUpper
attr title "packets passed to higher layer, packetBytes"
vector 277 NetworkA.server.eth[0].mac txPausePkUnits:vector ETV
attr interpolationmode none
attr recordingmode vector
attr title "pause units sent"
vector 278 NetworkA.server.eth[0].mac rxPausePkUnits:vector ETV
attr interpolationmode none
attr recordingmode vector
attr title "pause units received"
vector 279 NetworkA.server.eth[0].mac packetReceivedFromUpper:vector(packetBytes) ETV
attr interpolationmode none
attr recordingmode vector(packetBytes)
attr source packetReceivedFromUpper
attr title "packet bytes from higher layer, packetBytes"
vector 280 NetworkA.server.eth[0].mac packetDropIncorrectlyReceived:vector(packetBytes) ETV
attr interpolationmode none
attr recordingmode vector(packetBytes)
attr source packetDropReasonIsIncorrectlyReceived(packetDropped)
attr title "packet drop: incorrectly received, packetBytes"
vector 281 NetworkA.server.eth[0].mac packetDropInterfaceDown:vector(packetBytes) ETV
attr interpolationmode none
attr recordingmode vector(packetBytes)
attr source packetDropReasonIsInterfaceDown(packetDropped)
attr title "packet drop: interface down, packetBytes"
vector 282 NetworkA.server.eth[0].mac packetDropNotAddressedToUs:vector(packetBytes) ETV
attr interpolationmode none
attr recordingmode vector(packetBytes)
attr source packetDropReasonIsNotAddressedToUs(packetDropped)
attr title "packet drop: not addressed to us, packetBytes"
vector 283 NetworkA.server.eth[0] packetDropInterfaceDown:vector(packetBytes) ETV
attr interpolationmode none
attr recordingmode vector(packetBytes)
attr source packetDropReasonIsInterfaceDown(packetDropped)
attr title "packet drops: interface down, packetBytes"
vector 284 NetworkA.server.eth[0] packetDropNoCarrier:vector(packetBytes) ETV
attr interpolationmode none
attr recordingmode vector(packetBytes)
attr source packetDropReasonIsNoCarrier(packetDropped)
attr title "packet drops: no carrier, packetBytes"
vector 285 NetworkA.server.ipv4.ip packetDropAddressResolutionFailed:vector(packetBytes) ETV
attr interpolationmode none
attr recordingmode vector(packetBytes)
attr source packetDropReasonIsAddressResolutionFailed(packetDropped)
attr title "packet drop: address resolution failed, packetBytes"
vector 286 NetworkA.server.ipv4.ip packetDropHopLimitReached:vector(packetBytes) ETV
attr interpolationmode none
attr recordingmode vector(packetBytes)
attr source packetDropReasonIsHopLimitReached(packetDropped)
attr title "packet drop: hop limit reached, packetBytes"
vector 287 NetworkA.server.ipv4.ip packetDropForwardingDisabled:vector(packetBytes) ETV
attr interpolationmode none
attr recordingmode vector(packetBytes)
attr source packetDropReasonIsForwardingDisabled(packetDropped)
attr title "packet drop: forwarding disabled, packetBytes"
vector 288 NetworkA.server.ipv4.ip packetDropNoInterfaceFound:vector(packetBytes) ETV
attr interpolationmode none
attr recordingmode vector(packetBytes)
attr source packetDropReasonIsNoInterfaceFound(packetDropped)
attr title "packet drop: no interface found, packetBytes"
vector 289 NetworkA.server.ipv4.ip packetDropNoRouteFound:vector(packetBytes) ETV
attr interpolationmode none
attr recordingmode vector(packetBytes)
attr source packetDropReasonIsNoRouteFound(packetDropped)
attr title "packet drop: no route found, packetBytes"
vector 290 NetworkA.server.ipv4.ip packetDropUndefined:vector(packetBytes) ETV
attr interpolationmode none
attr recordingmode vector(packetBytes)
attr source packetDropReasonIsUndefined(packetDropped)
attr title "packet drop: undefined, packetBytes"
vector 291 NetworkA.server.udp packetSent:vector(packetBytes) ETV
attr interpolationmode none
attr recordingmode vector(packetBytes)
attr source packetSent
attr title "packets sent, packetBytes"
vector 292 NetworkA.server.udp packetReceived:vector(packetBytes) ETV
attr interpolationmode none
attr recordingmode vector(packetBytes)
attr source packetReceived
attr title "packets received, packetBytes"
vector 293 NetworkA.server.udp passedUpPk:vector(count) ETV
attr interpolationmode none
attr recordingmode vector(count)
attr source packetSentToUpper
attr title "packets passed up, count"
vector 294 NetworkA.server.udp droppedPkWrongPort:vector(count) ETV
attr interpolationmode none
attr recordingmode vector(count)
attr source packetDropReasonIsNoPortFound(packetDropped)
attr title "packets dropped (wrong port), count"
vector 295 NetworkA.server.udp droppedPkBadChecksum:vector(count) ETV
attr interpolationmode none
attr recordingmode vector(count)
attr source packetDropReasonIsIncorrectlyReceived(packetDropped)
attr title "packets dropped (checksum error), count"
vector 296 NetworkA.server.app[0] packetReceived:vector(packetBytes) ETV
attr interpolationmode none
attr recordingmode vector(packetBytes)
attr source packetReceived
attr title "packets received, packetBytes"
vector 297 NetworkA.server.app[0] throughput:vector ETV
attr recordingmode vector
attr source throughput(packetReceived)
attr title throughput
attr unit bps
vector 298 NetworkA.server.app[0] endToEndDelay:vector ETV
attr interpolationmode none
attr recordingmode vector
attr source dataAge(packetReceived)
attr title "end-to-end delay"
attr unit s
vector 299 NetworkA.server.app[0] rcvdPkSeqNo:vector ETV
attr interpolationmode none
attr recordingmode vector
attr source appPkSeqNo(packetReceived)
attr title "received packet sequence number"
vector 300 NetworkA.maliciousNode.lo[0].lo rcvdPkFromHl:vector(packetBytes) ETV
attr interpolationmode none
attr recordingmode vector(packetBytes)
attr source packetReceivedFromUpper
attr title "packets received from higher layer, packetBytes"
vector 301 NetworkA.maliciousNode.lo[0].lo passedUpPk:vector(packetBytes) ETV
attr interpolationmode none
attr recordingmode vector(packetBytes)
attr source packetSentToUpper
attr title "packets passed to higher layer, packetBytes"
vector 302 NetworkA.maliciousNode.lo[0] packetDropInterfaceDown:vector(packetBytes) ETV
attr interpolationmode none
attr recordingmode vector(packetBytes)
attr source packetDropReasonIsInterfaceDown(packetDropped)
attr title "packet drops: interface down, packetBytes"
vector 303 NetworkA.maliciousNode.lo[0] packetDropNoCarrier:vector(packetBytes) ETV
attr interpolationmode none
attr recordingmode vector(packetBytes)
attr source packetDropReasonIsNoCarrier(packetDropped)
attr title "packet drops: no carrier, packetBytes"
vector 304 NetworkA.maliciousNode.wlan[0].queue queueLength:vector ETV
attr autoWarmupFilter false
attr interpolationmode sample-hold
attr recordingmode vector
attr source "warmup(atomic(constant0(packetPushEnded) + count(packetPushStarted) - count(packetPulled) - count(packetRemoved) - count(packetDropped)))"
attr title "queue length"
attr unit pk
vector 305 NetworkA.maliciousNode.wlan[0].queue queueBitLength:vector ETV
attr autoWarmupFilter false
attr interpolationmode sample-hold
attr recordingmode vector
attr source "warmup(atomic(constant0(packetPushEnded) + sum(packetLength(packetPushStarted)) - sum(packetLength(packetPulled)) - sum(packetLength(packetRemoved)) - sum(packetLength(packetDropped))))"
attr title "queue bit length"
attr unit b
vector 306 NetworkA.maliciousNode.wlan[0].queue queueingTime:vector ETV
attr interpolationmode none
attr recordingmode vector
attr source queueingTime(packetPulled)
attr title "queueing times"
attr unit s
vector 307 NetworkA.maliciousNode.wlan[0].queue incomingPacketLengths:vector ETV
attr interpolationmode none
attr recordingmode vector
attr source packetLength(packetPushStarted)
attr title "incoming packet lengths"
attr unit b
vector 308 NetworkA.maliciousNode.wlan[0].queue incomingDataRate:vector ETV
attr interpolationmode linear
attr recordingmode vector
attr source throughput(packetPushStarted)
attr title "incoming datarate"
attr unit bps
vector 309 NetworkA.maliciousNode.wlan[0].queue outgoingPacketLengths:vector ETV
attr interpolationmode none
attr recordingmode vector
attr source packetLength(packetPulled)
attr title "outgoing packet lengths"
attr unit b
vector 310 NetworkA.maliciousNode.wlan[0].queue outgoingDataRate:vector ETV
attr interpolationmode linear
attr recordingmode vector
attr source throughput(packetPulled)
attr title "outgoing datarate"
attr unit bps
vector 311 NetworkA.maliciousNode.wlan[0].queue droppedPacketLengthsQueueOverflow:vector ETV
attr interpolationmode none
attr recordingmode vector
attr source packetLength(packetDropReasonIsQueueOverflow(packetDropped))
attr title "dropped packet lengths: queue overflow"
attr unit b
vector 312 NetworkA.maliciousNode.wlan[0].queue flowQueueingTime:vector ETV
attr interpolationmode none
attr recordingmode vector
attr source queueingTime(demuxFlow(packetPulled))
attr title "flow queueing times"
attr unit s
vector 313 NetworkA.maliciousNode.wlan[0].queue flowIncomingDataRate:vector ETV
attr interpolationmode linear
attr recordingmode vector
attr source throughput(flowPacketLength(demuxFlow(packetPushStarted)))
attr title "flow specific incoming data rate"
attr unit bps
vector 314 NetworkA.maliciousNode.wlan[0].queue flowOutgoingDataRate:vector ETV
attr interpolationmode linear
attr recordingmode vector
attr source throughput(flowPacketLength(demuxFlow(packetPulled)))
attr title "flow specific outgoing data rate"
attr unit bps
vector 315 NetworkA.maliciousNode.wlan[0].mac packetDropIncorrectlyReceived:vector(packetBytes) ETV
attr interpolationmode none
attr recordingmode vector(packetBytes)
attr source packetDropReasonIsIncorrectlyReceived(packetDropped)
attr title "packet drop: incorrectly received, packetBytes"
vector 316 NetworkA.maliciousNode.wlan[0].mac packetDropNotAddressedToUs:vector(packetBytes) ETV
attr interpolationmode none
attr recordingmode vector(packetBytes)
attr source packetDropReasonIsNotAddressedToUs(packetDropped)
attr title "packet drop: not addressed to us, packetBytes"
vector 317 NetworkA.maliciousNode.wlan[0].mac packetDropQueueOverflow:vector(packetBytes) ETV
attr interpolationmode none
attr recordingmode vector(packetBytes)
attr source packetDropReasonIsQueueOverflow(packetDropped)
attr title "packet drop: queue overflow, packetBytes"
vector 318 NetworkA.maliciousNode.wlan[0].radio radioMode:vector ETV
attr interpolationmode sample-hold
attr recordingmode vector
attr source radioModeChanged
attr title "Radio mode"
vector 319 NetworkA.maliciousNode.wlan[0].radio receptionState:vector ETV
attr interpolationmode sample-hold
attr recordingmode vector
attr source receptionStateChanged
attr title "Radio reception state"
vector 320 NetworkA.maliciousNode.wlan[0].radio transmissionState:vector ETV
attr interpolationmode sample-hold
attr recordingmode vector
attr source transmissionStateChanged
attr title "Radio transmission state"
vector 321 NetworkA.maliciousNode.wlan[0].radio packetDropped:vector(packetBytes) ETV
attr interpolationmode none
attr recordingmode vector(packetBytes)
attr title "packets dropped, packetBytes"
vector 322 NetworkA.maliciousNode.wlan[0] packetDropInterfaceDown:vector(packetBytes) ETV
attr interpolationmode none
attr recordingmode vector(packetBytes)
attr source packetDropReasonIsInterfaceDown(packetDropped)
attr title "packet drops: interface down, packetBytes"
vector 323 NetworkA.maliciousNode.wlan[0] packetDropNoCarrier:vector(packetBytes) ETV
attr interpolationmode none
attr recordingmode vector(packetBytes)
attr source packetDropReasonIsNoCarrier(packetDropped)
attr title "packet drops: no carrier, packetBytes"
vector 324 NetworkA.maliciousNode.ipv4.ip packetDropAddressResolutionFailed:vector(packetBytes) ETV
attr interpolationmode none
attr recordingmode vector(packetBytes)
attr source packetDropReasonIsAddressResolutionFailed(packetDropped)
attr title "packet drop: address resolution failed, packetBytes"
vector 325 NetworkA.maliciousNode.ipv4.ip packetDropHopLimitReached:vector(packetBytes) ETV
attr interpolationmode none
[...]
327	10344	11.26	68
327	10354	11.28	68
327	10362	11.3	68
327	10372	11.32	68
327	10380	11.34	68
327	10390	11.36	68
327	10398	11.38	68
327	10408	11.4	68
327	10416	11.42	68
327	10426	11.44	68
327	10434	11.46	68
327	10444	11.48	68
327	10455	11.5	68
327	10464	11.52	68
327	10471	11.54	68
327	10480	11.56	68
327	10488	11.58	68
327	10547	11.6	68
327	10599	11.62	68
330	20	0	48
330	27	0.02	48
330	38	0.04	48
330	50	0.06	48
330	125	0.08	48
330	178	0.1	48
330	205	0.12	48
330	214	0.14	48
330	223	0.16	48
330	236	0.18	48
330	247	0.2	48
330	257	0.22	48
330	266	0.24	48
330	275	0.26	48
330	284	0.28	48
330	293	0.3	48
330	302	0.32	48
330	311	0.34	48
330	320	0.36	48
330	329	0.38	48
330	338	0.4	48
330	347	0.42	48
330	356	0.44	48
330	365	0.46	48
330	374	0.48	48
330	387	0.5	48
330	395	0.52	48
330	403	0.54	48
330	411	0.56	48
330	450	0.58	48
330	527	0.6	48
330	569	0.62	48
330	572	0.64	48
330	587	0.66	48
330	592	0.68	48
330	611	0.7	48
330	615	0.72	48
330	630	0.74	48
330	633	0.76	48
330	648	0.78	48
330	651	0.8	48
330	666	0.82	48
330	669	0.84	48
330	684	0.86	48
330	687	0.88	48
330	702	0.9	48
330	705	0.92	48
330	720	0.94	48
330	723	0.96	48
330	738	0.98	48
330	741	1	48
330	756	1.02	48
330	759	1.04	48
330	778	1.06	48
330	796	1.08	48
330	872	1.1	48
330	909	1.12	48
330	937	1.14	48
330	946	1.16	48
330	956	1.18	48
330	969	1.2	48
330	979	1.22	48
330	989	1.24	48
330	998	1.26	48
330	1007	1.28	48
330	1016	1.3	48
330	1025	1.32	48
330	1034	1.34	48
330	1043	1.36	48
330	1052	1.38	48
330	1061	1.4	48
330	1070	1.42	48
330	1079	1.44	48
330	1088	1.46	48
330	1097	1.48	48
330	1110	1.5	48
330	1118	1.52	48
330	1126	1.54	48
330	1154	1.56	48
330	1232	1.58	48
330	1272	1.6	48
330	1282	1.62	48
330	1296	1.64	48
330	1301	1.66	48
330	1319	1.68	48
330	1324	1.7	48
330	1339	1.72	48
330	1343	1.74	48
330	1357	1.76	48
330	1361	1.78	48
330	1375	1.8	48
330	1379	1.82	48
330	1393	1.84	48
330	1402	1.86	48
330	1426	1.88	48
330	1487	1.9	48
330	1530	1.92	48
330	1542	1.94	48
330	1554	1.96	48
330	1609	1.98	48
330	1671	2	48
330	1687	2.02	48
330	1699	2.04	48
330	1710	2.06	48
330	1722	2.08	48
330	1732	2.1	48
330	1758	2.12	48
330	1835	2.14	48
330	1873	2.16	48
330	1887	2.18	48
330	1899	2.2	48
330	1906	2.22	48
330	1922	2.24	48
330	1929	2.26	48
330	1942	2.28	48
330	1948	2.3	48
330	1960	2.32	48
330	1966	2.34	48
330	1978	2.36	48
330	1984	2.38	48
330	1996	2.4	48
330	2002	2.42	48
330	2014	2.44	48
330	2020	2.46	48
330	2032	2.48	48
330	2042	2.5	48
330	2052	2.52	48
330	2058	2.54	48
330	2069	2.56	48
330	2123	2.58	48
330	2176	2.6	48
330	2204	2.62	48
330	2210	2.64	48
330	2222	2.66	48
330	2231	2.68	48
330	2246	2.7	48
330	2253	2.72	48
330	2265	2.74	48
330	2271	2.76	48
330	2283	2.78	48
330	2289	2.8	48
330	2301	2.82	48
330	2307	2.84	48
330	2323	2.86	48
330	2332	2.88	48
330	2406	2.9	48
330	2453	2.92	48
330	2471	2.94	48
330	2537	2.96	48
330	2591	2.98	48
330	2623	3	48
330	2634	3.02	48
330	2644	3.04	48
330	2661	3.06	48
330	2712	3.08	48
330	2770	3.1	48
330	2790	3.12	48
330	2798	3.14	48
330	2808	3.16	48
330	2819	3.18	48
330	2832	3.2	48
330	2841	3.22	48
330	2851	3.24	48
330	2859	3.26	48
330	2869	3.28	48
330	2877	3.3	48
330	2887	3.32	48
330	2895	3.34	48
330	2905	3.36	48
330	2913	3.38	48
330	2923	3.4	48
330	2931	3.42	48
330	2941	3.44	48
330	2949	3.46	48
330	2959	3.48	48
330	2970	3.5	48
330	2979	3.52	48
330	2986	3.54	48
330	2995	3.56	48
330	3011	3.58	48
330	3086	3.6	48
330	3133	3.62	48
330	3151	3.64	48
330	3160	3.66	48
330	3169	3.68	48
330	3182	3.7	48
330	3193	3.72	48
330	3203	3.74	48
330	3212	3.76	48
330	3221	3.78	48
330	3230	3.8	48
330	3239	3.82	48
330	3248	3.84	48
330	3261	3.86	48
330	3332	3.88	48
330	3380	3.9	48
330	3397	3.92	48
330	3405	3.94	48
330	3413	3.96	48
330	3426	3.98	48
330	3487	4	48
330	3539	4.02	48
330	3557	4.04	48
330	3569	4.06	48
330	3638	4.08	48
330	3691	4.1	48
330	3711	4.12	48
330	3721	4.14	48
330	3730	4.16	48
330	3743	4.18	48
330	3754	4.2	48
330	3764	4.22	48
330	3773	4.24	48
330	3782	4.26	48
330	3791	4.28	48
330	3800	4.3	48
330	3809	4.32	48
330	3818	4.34	48
330	3827	4.36	48
330	3836	4.38	48
330	3845	4.4	48
330	3854	4.42	48
330	3863	4.44	48
330	3872	4.46	48
330	3881	4.48	48
330	3893	4.5	48
330	3901	4.52	48
330	3929	4.54	48
330	4005	4.56	48
330	4046	4.58	48
330	4058	4.6	48
330	4071	4.62	48
330	4077	4.64	48
330	4094	4.66	48
330	4100	4.68	48
330	4114	4.7	48
330	4119	4.72	48
330	4132	4.74	48
330	4137	4.76	48
330	4150	4.78	48
330	4155	4.8	48
330	4168	4.82	48
330	4173	4.84	48
330	4190	4.86	48
330	4199	4.88	48
330	4208	4.9	48
330	4213	4.92	48
330	4222	4.94	48
330	4228	4.96	48
330	4278	4.98	48
330	4357	5	48
330	4380	5.02	48
330	4423	5.04	48
330	4497	5.06	48
330	4532	5.08	48
330	4567	5.1	48
330	4645	5.12	48
330	4691	5.14	48
330	4697	5.16	48
330	4713	5.18	48
330	4718	5.2	48
330	4737	5.22	48
330	4741	5.24	48
330	4756	5.26	48
330	4759	5.28	48
330	4774	5.3	48
330	4777	5.32	48
330	4792	5.34	48
330	4795	5.36	48
330	4810	5.38	48
330	4813	5.4	48
330	4828	5.42	48
330	4831	5.44	48
330	4846	5.46	48
330	4849	5.48	48
330	4866	5.5	48
330	4869	5.52	48
330	4882	5.54	48
330	4885	5.56	48
330	4931	5.58	48
330	5009	5.6	48
330	5039	5.62	48
330	5042	5.64	48
330	5057	5.66	48
330	5062	5.68	48
330	5081	5.7	48
330	5085	5.72	48
330	5100	5.74	48
330	5103	5.76	48
330	5118	5.78	48
330	5121	5.8	48
330	5136	5.82	48
330	5139	5.84	48
330	5158	5.86	48
330	5165	5.88	48
330	5177	5.9	48
330	5221	5.92	48
330	5290	5.94	48
330	5321	5.96	48
330	5359	5.98	48
330	5437	6	48
330	5474	6.02	48
330	5480	6.04	48
330	5500	6.06	48
330	5505	6.08	48
330	5522	6.1	48
330	5527	6.12	48
330	5606	6.14	48
330	5658	6.16	48
330	5677	6.18	48
330	5686	6.2	48
330	5695	6.22	48
330	5708	6.24	48
330	5719	6.26	48
330	5729	6.28	48
330	5738	6.3	48
330	5747	6.32	48
330	5756	6.34	48
330	5765	6.36	48
330	5774	6.38	48
330	5783	6.4	48
330	5792	6.42	48
330	5801	6.44	48
330	5810	6.46	48
330	5819	6.48	48
330	5872	6.5	48
330	5929	6.52	48
330	5948	6.54	48
330	5956	6.56	48
330	5966	6.58	48
330	5977	6.6	48
330	5990	6.62	48
330	5999	6.64	48
330	6009	6.66	48
330	6017	6.68	48
330	6027	6.7	48
330	6035	6.72	48
330	6045	6.74	48
330	6053	6.76	48
330	6063	6.78	48
330	6071	6.8	48
330	6081	6.82	48
330	6089	6.84	48
330	6103	6.86	48
330	6114	6.88	48
330	6165	6.9	48
330	6223	6.92	48
330	6256	6.94	48
330	6316	6.96	48
330	6352	6.98	48
330	6381	7	48
330	6394	7.02	48
330	6404	7.04	48
330	6422	7.06	48
330	6477	7.08	48
330	6531	7.1	48
330	6550	7.12	48
330	6557	7.14	48
330	6568	7.16	48
330	6578	7.18	48
330	6592	7.2	48
330	6600	7.22	48
330	6611	7.24	48
330	6618	7.26	48
330	6629	7.28	48
330	6636	7.3	48
330	6647	7.32	48
330	6654	7.34	48
330	6665	7.36	48
330	6672	7.38	48
330	6683	7.4	48
330	6690	7.42	48
330	6701	7.44	48
330	6708	7.46	48
330	6719	7.48	48
330	6729	7.5	48
330	6739	7.52	48
330	6746	7.54	48
330	6824	7.56	48
330	6878	7.58	48
330	6895	7.6	48
330	6904	7.62	48
330	6913	7.64	48
330	6926	7.66	48
330	6937	7.68	48
330	6947	7.7	48
330	6956	7.72	48
330	6965	7.74	48
330	6974	7.76	48
330	6983	7.78	48
330	6992	7.8	48
330	7001	7.82	48
330	7010	7.84	48
330	7023	7.86	48
330	7099	7.88	48
330	7149	7.9	48
330	7189	7.92	48
330	7254	7.94	48
330	7285	7.96	48
330	7314	7.98	48
330	7325	8	48
330	7336	8.02	48
330	7349	8.04	48
330	7363	8.06	48
330	7372	8.08	48
330	7380	8.1	48
330	7389	8.12	48
330	7467	8.14	48
330	7521	8.16	48
330	7538	8.18	48
330	7547	8.2	48
330	7556	8.22	48
330	7569	8.24	48
330	7580	8.26	48
330	7590	8.28	48
330	7599	8.3	48
330	7608	8.32	48
330	7617	8.34	48
330	7626	8.36	48
330	7635	8.38	48
330	7644	8.4	48
330	7653	8.42	48
330	7662	8.44	48
330	7671	8.46	48
330	7680	8.48	48
330	7693	8.5	48
330	7701	8.52	48
330	7709	8.54	48
330	7717	8.56	48
330	7726	8.58	48
330	7779	8.6	48
330	7848	8.62	48
330	7880	8.64	48
330	7883	8.66	48
330	7898	8.68	48
330	7904	8.7	48
330	7922	8.72	48
330	7926	8.74	48
330	7941	8.76	48
330	7944	8.78	48
330	7959	8.8	48
330	7962	8.82	48
330	7977	8.84	48
330	7984	8.86	48
330	8001	8.88	48
330	8004	8.9	48
330	8015	8.92	48
330	8033	8.94	48
330	8106	8.96	48
330	8141	8.98	48
330	8207	9	48
330	8264	9.02	48
330	8282	9.04	48
330	8298	9.06	48
330	8364	9.08	48
330	8416	9.1	48
330	8437	9.12	48
330	8446	9.14	48
330	8456	9.16	48
330	8468	9.18	48
330	8480	9.2	48
330	8489	9.22	48
330	8499	9.24	48
330	8507	9.26	48
330	8517	9.28	48
330	8525	9.3	48
330	8535	9.32	48
330	8543	9.34	48
330	8553	9.36	48
330	8561	9.38	48
330	8571	9.4	48
330	8579	9.42	48
330	8589	9.44	48
330	8597	9.46	48
330	8607	9.48	48
330	8618	9.5	48
330	8627	9.52	48
330	8634	9.54	48
330	8643	9.56	48
330	8683	9.58	48
330	8761	9.6	48
330	8792	9.62	48
330	8795	9.64	48
330	8810	9.66	48
330	8815	9.68	48
330	8834	9.7	48
330	8838	9.72	48
330	8853	9.74	48
330	8856	9.76	48
330	8871	9.78	48
330	8874	9.8	48
330	8889	9.82	48
330	8892	9.84	48
330	8911	9.86	48
330	8918	9.88	48
330	8939	9.9	48
330	8994	9.92	48
330	9038	9.94	48
330	9103	9.96	48
330	9153	9.98	48
330	9165	10	48
330	9182	10.02	48
330	9189	10.04	48
330	9217	10.06	48
330	9282	10.08	48
330	9331	10.1	48
330	9344	10.12	48
330	9356	10.14	48
330	9362	10.16	48
330	9378	10.18	48
330	9386	10.2	48
330	9399	10.22	48
330	9405	10.24	48
330	9417	10.26	48
330	9423	10.28	48
330	9435	10.3	48
330	9441	10.32	48
330	9453	10.34	48
330	9459	10.36	48
330	9471	10.38	48
330	9477	10.4	48
330	9489	10.42	48
330	9495	10.44	48
330	9507	10.46	48
330	9513	10.48	48
330	9528	10.5	48
330	9568	10.52	48
330	9636	10.54	48
330	9668	10.56	48
330	9672	10.58	48
330	9686	10.6	48
330	9692	10.62	48
330	9710	10.64	48
330	9715	10.66	48
330	9729	10.68	48
330	9733	10.7	48
330	9747	10.72	48
330	9751	10.74	48
330	9765	10.76	48
330	9769	10.78	48
330	9783	10.8	48
330	9787	10.82	48
330	9801	10.84	48
330	9809	10.86	48
330	9826	10.88	48
330	9885	10.9	48
330	9935	10.92	48
330	9978	10.94	48
330	10039	10.96	48
330	10076	10.98	48
330	10107	11	48
330	10118	11.02	48
330	10129	11.04	48
330	10146	11.06	48
330	10209	11.08	48
330	10256	11.1	48
330	10274	11.12	48
330	10282	11.14	48
330	10292	11.16	48
330	10304	11.18	48
330	10316	11.2	48
330	10325	11.22	48
330	10335	11.24	48
330	10343	11.26	48
330	10353	11.28	48
330	10361	11.3	48
330	10371	11.32	48
330	10379	11.34	48
330	10389	11.36	48
330	10397	11.38	48
330	10407	11.4	48
330	10415	11.42	48
330	10425	11.44	48
330	10433	11.46	48
330	10443	11.48	48
330	10454	11.5	48
330	10463	11.52	48
330	10470	11.54	48
330	10479	11.56	48
330	10487	11.58	48
330	10546	11.6	48
330	10598	11.62	48
332	0	0	0
333	0	0	0
334	0	0	0
337	12	0	40
337	26	0.02	40
337	37	0.04	40
337	49	0.06	40
337	124	0.08	40
337	177	0.1	40
337	204	0.12	40
337	213	0.14	40
337	222	0.16	40
337	235	0.18	40
337	246	0.2	40
337	256	0.22	40
337	265	0.24	40
337	274	0.26	40
337	283	0.28	40
337	292	0.3	40
337	301	0.32	40
337	310	0.34	40
337	319	0.36	40
337	328	0.38	40
337	337	0.4	40
337	346	0.42	40
337	355	0.44	40
337	364	0.46	40
337	373	0.48	40
337	386	0.5	40
337	394	0.52	40
337	402	0.54	40
337	410	0.56	40
337	449	0.58	40
337	526	0.6	40
337	568	0.62	40
337	571	0.64	40
337	586	0.66	40
337	591	0.68	40
337	610	0.7	40
337	614	0.72	40
337	629	0.74	40
337	632	0.76	40
337	647	0.78	40
337	650	0.8	40
337	665	0.82	40
337	668	0.84	40
337	683	0.86	40
337	686	0.88	40
337	701	0.9	40
337	704	0.92	40
337	719	0.94	40
337	722	0.96	40
337	737	0.98	40
337	740	1	40
337	755	1.02	40
337	758	1.04	40
337	777	1.06	40
337	795	1.08	40
337	871	1.1	40
337	908	1.12	40
337	936	1.14	40
337	945	1.16	40
337	955	1.18	40
337	968	1.2	40
337	978	1.22	40
337	988	1.24	40
337	997	1.26	40
337	1006	1.28	40
337	1015	1.3	40
337	1024	1.32	40
337	1033	1.34	40
337	1042	1.36	40
337	1051	1.38	40
337	1060	1.4	40
337	1069	1.42	40
337	1078	1.44	40
337	1087	1.46	40
337	1096	1.48	40
337	1109	1.5	40
337	1117	1.52	40
337	1125	1.54	40
337	1153	1.56	40
337	1231	1.58	40
337	1271	1.6	40
337	1281	1.62	40
337	1295	1.64	40
337	1300	1.66	40
337	1318	1.68	40
337	1323	1.7	40
337	1338	1.72	40
337	1342	1.74	40
337	1356	1.76	40
337	1360	1.78	40
337	1374	1.8	40
337	1378	1.82	40
337	1392	1.84	40
337	1401	1.86	40
337	1425	1.88	40
337	1486	1.9	40
337	1529	1.92	40
337	1541	1.94	40
337	1553	1.96	40
337	1608	1.98	40
337	1670	2	40
337	1686	2.02	40
337	1698	2.04	40
337	1709	2.06	40
337	1721	2.08	40
337	1731	2.1	40
337	1757	2.12	40
337	1834	2.14	40
337	1872	2.16	40
337	1886	2.18	40
337	1898	2.2	40
337	1905	2.22	40
337	1921	2.24	40
337	1928	2.26	40
337	1941	2.28	40
337	1947	2.3	40
337	1959	2.32	40
337	1965	2.34	40
337	1977	2.36	40
337	1983	2.38	40
337	1995	2.4	40
337	2001	2.42	40
337	2013	2.44	40
337	2019	2.46	40
337	2031	2.48	40
337	2041	2.5	40
337	2051	2.52	40
337	2057	2.54	40
337	2068	2.56	40
337	2122	2.58	40
337	2175	2.6	40
337	2203	2.62	40
337	2209	2.64	40
337	2221	2.66	40
337	2230	2.68	40
337	2245	2.7	40
337	2252	2.72	40
337	2264	2.74	40
337	2270	2.76	40
337	2282	2.78	40
337	2288	2.8	40
337	2300	2.82	40
337	2306	2.84	40
337	2322	2.86	40
337	2331	2.88	40
337	2405	2.9	40
337	2452	2.92	40
337	2470	2.94	40
337	2536	2.96	40
337	2590	2.98	40
337	2622	3	40
337	2633	3.02	40
337	2643	3.04	40
337	2660	3.06	40
337	2711	3.08	40
337	2769	3.1	40
337	2789	3.12	40
337	2797	3.14	40
337	2807	3.16	40
337	2818	3.18	40
337	2831	3.2	40
337	2840	3.22	40
337	2850	3.24	40
337	2858	3.26	40
337	2868	3.28	40
337	2876	3.3	40
337	2886	3.32	40
337	2894	3.34	40
337	2904	3.36	40
337	2912	3.38	40
337	2922	3.4	40
337	2930	3.42	40
337	2940	3.44	40
337	2948	3.46	40
337	2958	3.48	40
337	2969	3.5	40
337	2978	3.52	40
337	2985	3.54	40
337	2994	3.56	40
337	3010	3.58	40
337	3085	3.6	40
337	3132	3.62	40
337	3150	3.64	40
337	3159	3.66	40
337	3168	3.68	40
337	3181	3.7	40
337	3192	3.72	40
337	3202	3.74	40
337	3211	3.76	40
337	3220	3.78	40
337	3229	3.8	40
337	3238	3.82	40
337	3247	3.84	40
337	3260	3.86	40
337	3331	3.88	40
337	3379	3.9	40
337	3396	3.92	40
337	3404	3.94	40
337	3412	3.96	40
337	3425	3.98	40
337	3486	4	40
337	3538	4.02	40
337	3556	4.04	40
337	3568	4.06	40
337	3637	4.08	40
337	3690	4.1	40
337	3710	4.12	40
337	3720	4.14	40
337	3729	4.16	40
337	3742	4.18	40
337	3753	4.2	40
337	3763	4.22	40
337	3772	4.24	40
337	3781	4.26	40
337	3790	4.28	40
337	3799	4.3	40
337	3808	4.32	40
337	3817	4.34	40
337	3826	4.36	40
337	3835	4.38	40
337	3844	4.4	40
337	3853	4.42	40
337	3862	4.44	40
337	3871	4.46	40
337	3880	4.48	40
337	3892	4.5	40
337	3900	4.52	40
337	3928	4.54	40
337	4004	4.56	40
337	4045	4.58	40
337	4057	4.6	40
337	4070	4.62	40
337	4076	4.64	40
337	4093	4.66	40
337	4099	4.68	40
337	4113	4.7	40
337	4118	4.72	40
337	4131	4.74	40
337	4136	4.76	40
337	4149	4.78	40
337	4154	4.8	40
337	4167	4.82	40
337	4172	4.84	40
337	4189	4.86	40
337	4198	4.88	40
337	4207	4.9	40
337	4212	4.92	40
337	4221	4.94	40
337	4227	4.96	40
337	4277	4.98	40
337	4356	5	40
337	4379	5.02	40
337	4422	5.04	40
337	4496	5.06	40
337	4531	5.08	40
337	4566	5.1	40
337	4644	5.12	40
337	4690	5.14	40
337	4696	5.16	40
337	4712	5.18	40
337	4717	5.2	40
337	4736	5.22	40
337	4740	5.24	40
337	4755	5.26	40
337	4758	5.28	40
337	4773	5.3	40
337	4776	5.32	40
337	4791	5.34	40
337	4794	5.36	40
337	4809	5.38	40
337	4812	5.4	40
337	4827	5.42	40
337	4830	5.44	40
337	4845	5.46	40
337	4848	5.48	40
337	4865	5.5	40
337	4868	5.52	40
337	4881	5.54	40
337	4884	5.56	40
337	4930	5.58	40
337	5008	5.6	40
337	5038	5.62	40
337	5041	5.64	40
337	5056	5.66	40
337	5061	5.68	40
337	5080	5.7	40
337	5084	5.72	40
337	5099	5.74	40
337	5102	5.76	40
337	5117	5.78	40
337	5120	5.8	40
337	5135	5.82	40
337	5138	5.84	40
337	5157	5.86	40
337	5164	5.88	40
337	5176	5.9	40
337	5220	5.92	40
337	5289	5.94	40
337	5320	5.96	40
337	5358	5.98	40
337	5436	6	40
337	5473	6.02	40
337	5479	6.04	40
337	5499	6.06	40
337	5504	6.08	40
337	5521	6.1	40
337	5526	6.12	40
337	5605	6.14	40
337	5657	6.16	40
337	5676	6.18	40
337	5685	6.2	40
337	5694	6.22	40
337	5707	6.24	40
337	5718	6.26	40
337	5728	6.28	40
337	5737	6.3	40
337	5746	6.32	40
337	5755	6.34	40
337	5764	6.36	40
337	5773	6.38	40
337	5782	6.4	40
337	5791	6.42	40
337	5800	6.44	40
337	5809	6.46	40
337	5818	6.48	40
337	5871	6.5	40
337	5928	6.52	40
337	5947	6.54	40
337	5955	6.56	40
337	5965	6.58	40
337	5976	6.6	40
337	5989	6.62	40
337	5998	6.64	40
337	6008	6.66	40
337	6016	6.68	40
337	6026	6.7	40
337	6034	6.72	40
337	6044	6.74	40
337	6052	6.76	40
337	6062	6.78	40
337	6070	6.8	40
337	6080	6.82	40
337	6088	6.84	40
337	6102	6.86	40
337	6113	6.88	40
337	6164	6.9	40
337	6222	6.92	40
337	6255	6.94	40
337	6315	6.96	40
337	6351	6.98	40
337	6380	7	40
337	6393	7.02	40
337	6403	7.04	40
337	6421	7.06	40
337	6476	7.08	40
337	6530	7.1	40
337	6549	7.12	40
337	6556	7.14	40
337	6567	7.16	40
337	6577	7.18	40
337	6591	7.2	40
337	6599	7.22	40
337	6610	7.24	40
337	6617	7.26	40
337	6628	7.28	40
337	6635	7.3	40
337	6646	7.32	40
337	6653	7.34	40
337	6664	7.36	40
337	6671	7.38	40
337	6682	7.4	40
337	6689	7.42	40
337	6700	7.44	40
337	6707	7.46	40
337	6718	7.48	40
337	6728	7.5	40
337	6738	7.52	40
337	6745	7.54	40
337	6823	7.56	40
337	6877	7.58	40
337	6894	7.6	40
337	6903	7.62	40
337	6912	7.64	40
337	6925	7.66	40
337	6936	7.68	40
337	6946	7.7	40
337	6955	7.72	40
337	6964	7.74	40
337	6973	7.76	40
337	6982	7.78	40
337	6991	7.8	40
337	7000	7.82	40
337	7009	7.84	40
337	7022	7.86	40
337	7098	7.88	40
337	7148	7.9	40
337	7188	7.92	40
337	7253	7.94	40
337	7284	7.96	40
337	7313	7.98	40
337	7324	8	40
337	7335	8.02	40
337	7348	8.04	40
337	7362	8.06	40
337	7371	8.08	40
337	7379	8.1	40
337	7388	8.12	40
337	7466	8.14	40
337	7520	8.16	40
337	7537	8.18	40
337	7546	8.2	40
337	7555	8.22	40
337	7568	8.24	40
337	7579	8.26	40
337	7589	8.28	40
337	7598	8.3	40
337	7607	8.32	40
337	7616	8.34	40
337	7625	8.36	40
337	7634	8.38	40
337	7643	8.4	40
337	7652	8.42	40
337	7661	8.44	40
337	7670	8.46	40
337	7679	8.48	40
337	7692	8.5	40
337	7700	8.52	40
337	7708	8.54	40
337	7716	8.56	40
337	7725	8.58	40
337	7778	8.6	40
337	7847	8.62	40
337	7879	8.64	40
337	7882	8.66	40
337	7897	8.68	40
337	7903	8.7	40
337	7921	8.72	40
337	7925	8.74	40
337	7940	8.76	40
337	7943	8.78	40
337	7958	8.8	40
337	7961	8.82	40
337	7976	8.84	40
337	7983	8.86	40
337	8000	8.88	40
337	8003	8.9	40
337	8014	8.92	40
337	8032	8.94	40
337	8105	8.96	40
337	8140	8.98	40
337	8206	9	40
337	8263	9.02	40
337	8281	9.04	40
337	8297	9.06	40
337	8363	9.08	40
337	8415	9.1	40
337	8436	9.12	40
337	8445	9.14	40
337	8455	9.16	40
337	8467	9.18	40
337	8479	9.2	40
337	8488	9.22	40
337	8498	9.24	40
337	8506	9.26	40
337	8516	9.28	40
337	8524	9.3	40
337	8534	9.32	40
337	8542	9.34	40
337	8552	9.36	40
337	8560	9.38	40
337	8570	9.4	40
337	8578	9.42	40
337	8588	9.44	40
337	8596	9.46	40
337	8606	9.48	40
337	8617	9.5	40
337	8626	9.52	40
337	8633	9.54	40
337	8642	9.56	40
337	8682	9.58	40
337	8760	9.6	40
337	8791	9.62	40
337	8794	9.64	40
337	8809	9.66	40
337	8814	9.68	40
337	8833	9.7	40
337	8837	9.72	40
337	8852	9.74	40
337	8855	9.76	40
337	8870	9.78	40
337	8873	9.8	40
337	8888	9.82	40
337	8891	9.84	40
337	8910	9.86	40
337	8917	9.88	40
337	8938	9.9	40
337	8993	9.92	40
337	9037	9.94	40
337	9102	9.96	40
337	9152	9.98	40
337	9164	10	40
337	9181	10.02	40
337	9188	10.04	40
337	9216	10.06	40
337	9281	10.08	40
337	9330	10.1	40
337	9343	10.12	40
337	9355	10.14	40
337	9361	10.16	40
337	9377	10.18	40
337	9385	10.2	40
337	9398	10.22	40
337	9404	10.24	40
337	9416	10.26	40
337	9422	10.28	40
337	9434	10.3	40
337	9440	10.32	40
337	9452	10.34	40
337	9458	10.36	40
337	9470	10.38	40
337	9476	10.4	40
337	9488	10.42	40
337	9494	10.44	40
337	9506	10.46	40
337	9512	10.48	40
337	9527	10.5	40
337	9567	10.52	40
337	9635	10.54	40
337	9667	10.56	40
337	9671	10.58	40
337	9685	10.6	40
337	9691	10.62	40
337	9709	10.64	40
337	9714	10.66	40
337	9728	10.68	40
337	9732	10.7	40
337	9746	10.72	40
337	9750	10.74	40
337	9764	10.76	40
337	9768	10.78	40
337	9782	10.8	40
337	9786	10.82	40
337	9800	10.84	40
337	9808	10.86	40
337	9825	10.88	40
337	9884	10.9	40
337	9934	10.92	40
337	9977	10.94	40
337	10038	10.96	40
337	10075	10.98	40
337	10106	11	40
337	10117	11.02	40
337	10128	11.04	40
337	10145	11.06	40
337	10208	11.08	40
337	10255	11.1	40
337	10273	11.12	40
337	10281	11.14	40
337	10291	11.16	40
337	10303	11.18	40
337	10315	11.2	40
337	10324	11.22	40
337	10334	11.24	40
337	10342	11.26	40
337	10352	11.28	40
337	10360	11.3	40
337	10370	11.32	40
337	10378	11.34	40
337	10388	11.36	40
337	10396	11.38	40
337	10406	11.4	40
337	10414	11.42	40
337	10424	11.44	40
337	10432	11.46	40
337	10442	11.48	40
337	10453	11.5	40
337	10462	11.52	40
337	10469	11.54	40
337	10478	11.56	40
337	10486	11.58	40
337	10545	11.6	40
337	10597	11.62	40

