version 3
run Attacco_Aggressivo-0-20251005-11:28:27-2073
attr configname Attacco_Aggressivo
attr datetime 20251005-11:28:27
attr datetimef 20251005-112827
attr experiment Attacco_Aggressivo
attr inifile omnetppB-MAC.ini
attr iterationvars ""
attr iterationvarsd ""
attr iterationvarsf ""
attr measurement ""
attr network NetworkA
attr processid 2073
attr repetition 0
attr replication #0
attr resultdir results
attr runnumber 0
attr seedset 0
config image-path ../../inet-4.5.4/images
config extends safe
config *.maliciousNode.numApps 1
config *.maliciousNode.app[0].typename UdpBasicApp
config *.maliciousNode.app[0].destAddresses "\"10.0.0.5\""
config *.maliciousNode.app[0].destPort 4000
config *.maliciousNode.app[0].messageLength 120B
config *.maliciousNode.app[0].sendInterval 0.1s
config *.maliciousNode.app[0].startTime 0s
config *.maliciousNode.wlan[*].mac.ctrlFrameLength 40B
config *.maliciousNode.wlan[*].radio.transmitter.bitrate "125000 bps"
config network NetworkA
config sim-time-limit 100s
config output-vector-file resultsB-MAC/run-Attacco_Aggressivo-0/results.vec
config output-scalar-file resultsB-MAC/run-Attacco_Aggressivo-0/results.sca
config **.wlan*.radio.initialRadioMode "\"sleep\""
config **.wlan*.mac.typename BMac
config **.wlan*.mac.headerLength 1B
config **.wlan*.mac.slotDuration 0.05s
config **.wlan*.queue.typename DropTailQueue
config **.wlan*.queue.packetCapacity 50
config **.wlan*.mac.checkInterval 0.02s
config **.wlan[*].typename WirelessInterface
config **.wlan[*].radio.typename ApskScalarRadio
config **.wlan*.mac.animation true
config **.arp.typename GlobalArp
config **.maxTransmissionDuration 100ms
config *.gateway.forwarding true
config **.radio.centerFrequency 2.45GHz
config **.radio.bandwidth 2MHz
config **.radio.transmitter.bitrate "250000 bps"
config **.radio.transmitter.headerLength 32b
config **.radio.transmitter.preambleDuration 0.000128s
config **.radio.transmitter.power 2.5mW
config **.radio.receiver.energyDetection -95dBm
config **.radio.receiver.sensitivity -100dBm
config **.radio.receiver.snirThreshold -8dB
config *.sensor*.numApps 1
config *.sensor*.app[0].typename UdpBasicApp
config *.sensor*.app[0].destAddresses "\"server\""
config *.sensor*.app[0].destPort 1000
config *.sensor*.app[0].sendInterval 1s
config *.sensor*.app[0].startTime exponential(1s)
config *.sensor*.app[0].messageLength 10B
config *.gateway.numApps 1
config *.gateway.app[0].typename UdpSink
config *.gateway.app[0].localPort 4000
config *.server.numApps 1
config *.server.app[0].typename UdpSink
config *.server.app[0].localPort 1000
config *.visualizer.routingTableVisualizer.lineShift 0
config *.visualizer.infoVisualizer.modules "\"*.server.app[0]\""
config *.visualizer.networkRouteVisualizer.displayRoutes true
config *.visualizer.physicalLinkVisualizer.displayLinks true
config *.visualizer.energyStorageVisualizer.displayEnergyStorages true
config *.sensor*.energyStorage.nominalCapacity 0.5J
config *.sensor*.energyManagement.nodeShutdownCapacity 0.005J
config *.gateway.energyStorage.nominalCapacity 5J
config *.gateway.energyManagement.nodeShutdownCapacity 0.005J

par NetworkA.gateway.ethg$o[0].channel typename "\"inet.node.ethernet.Eth100M\""
par NetworkA.gateway.ethg$o[0].channel disabled false
attr mutable ""
par NetworkA.gateway.ethg$o[0].channel delay 5e-08s
attr mutable ""
attr unit s
par NetworkA.gateway.ethg$o[0].channel datarate 1e+08bps
attr mutable ""
attr unit bps
par NetworkA.gateway.ethg$o[0].channel ber 0
attr mutable ""
par NetworkA.gateway.ethg$o[0].channel per 0
attr mutable ""
par NetworkA.gateway.ethg$o[0].channel length 10m
attr unit m
par NetworkA.server.ethg$o[0].channel typename "\"inet.node.ethernet.Eth100M\""
par NetworkA.server.ethg$o[0].channel disabled false
attr mutable ""
par NetworkA.server.ethg$o[0].channel delay 5e-08s
attr mutable ""
attr unit s
par NetworkA.server.ethg$o[0].channel datarate 1e+08bps
attr mutable ""
attr unit bps
par NetworkA.server.ethg$o[0].channel ber 0
attr mutable ""
par NetworkA.server.ethg$o[0].channel per 0
attr mutable ""
par NetworkA.server.ethg$o[0].channel length 10m
attr unit m
par NetworkA.configurator typename "\"inet.networklayer.configurator.ipv4.Ipv4NetworkConfigurator\""
par NetworkA.configurator minLinkWeight 0.001
par NetworkA.configurator configureIsolatedNetworksSeparatly false
par NetworkA.configurator config "<config>...</config> at content:1"
par NetworkA.configurator assignAddresses true
par NetworkA.configurator assignUniqueAddresses true
par NetworkA.configurator assignDisjunctSubnetAddresses true
par NetworkA.configurator addStaticRoutes true
par NetworkA.configurator addDefaultRoutes true
par NetworkA.configurator addSubnetRoutes true
par NetworkA.configurator addDirectRoutes true
par NetworkA.configurator optimizeRoutes true
par NetworkA.configurator dumpTopology false
par NetworkA.configurator dumpLinks false
par NetworkA.configurator dumpAddresses false
par NetworkA.configurator dumpRoutes false
par NetworkA.configurator dumpConfig "\"\""
par NetworkA.visualizer.sceneVisualizer typename "\"inet.visualizer.canvas.scene.SceneCanvasVisualizer\""
par NetworkA.visualizer.sceneVisualizer visualizationTargetModule "\"^.^\""
par NetworkA.visualizer.sceneVisualizer visualizationSubjectModule "\"^.^\""
par NetworkA.visualizer.sceneVisualizer tags "\"\""
par NetworkA.visualizer.sceneVisualizer physicalEnvironmentModule "\"physicalEnvironment\""
par NetworkA.visualizer.sceneVisualizer networkNodeVisualizerModule "\"^.networkNodeVisualizer\""
par NetworkA.visualizer.sceneVisualizer axisLength "nan m"
attr mutable ""
attr unit m
par NetworkA.visualizer.sceneVisualizer animationSpeed 0
par NetworkA.visualizer.sceneVisualizer sceneMinX "nan m"
attr unit m
par NetworkA.visualizer.sceneVisualizer sceneMinY "nan m"
attr unit m
par NetworkA.visualizer.sceneVisualizer sceneMinZ "nan m"
attr unit m
par NetworkA.visualizer.sceneVisualizer sceneMaxX "nan m"
attr unit m
par NetworkA.visualizer.sceneVisualizer sceneMaxY "nan m"
attr unit m
par NetworkA.visualizer.sceneVisualizer sceneMaxZ "nan m"
attr unit m
par NetworkA.visualizer.sceneVisualizer zIndex 0
par NetworkA.visualizer.sceneVisualizer viewAngle "\"x right y down z out\""
attr mutable ""
par NetworkA.visualizer.sceneVisualizer viewScale "\"1 1\""
attr mutable ""
par NetworkA.visualizer.sceneVisualizer viewTranslation "\"0 0\""
attr mutable ""
par NetworkA.visualizer.sceneVisualizer descriptionFigure "\"\""
par NetworkA.visualizer.physicalEnvironmentVisualizer typename "\"inet.visualizer.canvas.environment.PhysicalEnvironmentCanvasVisualizer\""
par NetworkA.visualizer.physicalEnvironmentVisualizer visualizationTargetModule "\"^.^\""
par NetworkA.visualizer.physicalEnvironmentVisualizer visualizationSubjectModule "\"^.^\""
par NetworkA.visualizer.physicalEnvironmentVisualizer tags "\"\""
par NetworkA.visualizer.physicalEnvironmentVisualizer physicalEnvironmentModule "\"physicalEnvironment\""
par NetworkA.visualizer.physicalEnvironmentVisualizer displayObjects true
par NetworkA.visualizer.physicalEnvironmentVisualizer zIndex 0
par NetworkA.visualizer.networkNodeVisualizer typename "\"inet.visualizer.canvas.scene.NetworkNodeCanvasVisualizer\""
par NetworkA.visualizer.networkNodeVisualizer visualizationTargetModule "\"^.^\""
par NetworkA.visualizer.networkNodeVisualizer visualizationSubjectModule "\"^.^\""
par NetworkA.visualizer.networkNodeVisualizer tags "\"\""
par NetworkA.visualizer.networkNodeVisualizer nodeFilter "\"*\""
attr mutable ""
par NetworkA.visualizer.networkNodeVisualizer annotationSpacing 4
par NetworkA.visualizer.networkNodeVisualizer placementPenalty 10
par NetworkA.visualizer.networkNodeVisualizer zIndex 0
par NetworkA.visualizer.networkConnectionVisualizer typename "\"inet.visualizer.canvas.scene.NetworkConnectionCanvasVisualizer\""
par NetworkA.visualizer.networkConnectionVisualizer visualizationTargetModule "\"^.^\""
par NetworkA.visualizer.networkConnectionVisualizer visualizationSubjectModule "\"^.^\""
par NetworkA.visualizer.networkConnectionVisualizer tags "\"\""
par NetworkA.visualizer.networkConnectionVisualizer displayNetworkConnections true
par NetworkA.visualizer.networkConnectionVisualizer nodeFilter "\"\""
attr mutable ""
par NetworkA.visualizer.networkConnectionVisualizer lineColor "\"black\""
par NetworkA.visualizer.networkConnectionVisualizer lineStyle "\"solid\""
par NetworkA.visualizer.networkConnectionVisualizer lineWidth 1
par NetworkA.visualizer.networkConnectionVisualizer zIndex 0
par NetworkA.visualizer.mobilityVisualizer typename "\"inet.visualizer.canvas.mobility.MobilityCanvasVisualizer\""
par NetworkA.visualizer.mobilityVisualizer visualizationTargetModule "\"^.^\""
par NetworkA.visualizer.mobilityVisualizer visualizationSubjectModule "\"^.^\""
par NetworkA.visualizer.mobilityVisualizer tags "\"\""
par NetworkA.visualizer.mobilityVisualizer networkNodeVisualizerModule "\"^.networkNodeVisualizer\""
par NetworkA.visualizer.mobilityVisualizer displayMobility true
par NetworkA.visualizer.mobilityVisualizer animationSpeed 0
par NetworkA.visualizer.mobilityVisualizer moduleFilter "\"**.mobility\""
attr mutable ""
par NetworkA.visualizer.mobilityVisualizer displayPositions false
par NetworkA.visualizer.mobilityVisualizer positionCircleRadius 4
par NetworkA.visualizer.mobilityVisualizer positionCircleLineWidth 1
par NetworkA.visualizer.mobilityVisualizer positionCircleLineColor "\"dark\""
par NetworkA.visualizer.mobilityVisualizer positionCircleFillColor "\"dark\""
par NetworkA.visualizer.mobilityVisualizer displayOrientations false
par NetworkA.visualizer.mobilityVisualizer orientationPieRadius 32
par NetworkA.visualizer.mobilityVisualizer orientationPieSize 0.2
par NetworkA.visualizer.mobilityVisualizer orientationPieOpacity 0.25
par NetworkA.visualizer.mobilityVisualizer orientationLineColor "\"black\""
par NetworkA.visualizer.mobilityVisualizer orientationLineStyle "\"solid\""
par NetworkA.visualizer.mobilityVisualizer orientationLineWidth 1
par NetworkA.visualizer.mobilityVisualizer orientationFillColor "\"blue\""
par NetworkA.visualizer.mobilityVisualizer displayVelocities false
par NetworkA.visualizer.mobilityVisualizer velocityArrowScale 1
par NetworkA.visualizer.mobilityVisualizer velocityLineColor "\"black\""
par NetworkA.visualizer.mobilityVisualizer velocityLineStyle "\"solid\""
par NetworkA.visualizer.mobilityVisualizer velocityLineWidth 1
par NetworkA.visualizer.mobilityVisualizer displayMovementTrails false
par NetworkA.visualizer.mobilityVisualizer movementTrailLineColor "\"dark\""
par NetworkA.visualizer.mobilityVisualizer movementTrailLineStyle "\"solid\""
par NetworkA.visualizer.mobilityVisualizer movementTrailLineWidth 1
par NetworkA.visualizer.mobilityVisualizer trailLength 100
par NetworkA.visualizer.mobilityVisualizer zIndex 0
par NetworkA.visualizer.statisticVisualizer typename "\"inet.visualizer.canvas.common.StatisticCanvasVisualizer\""
par NetworkA.visualizer.statisticVisualizer visualizationTargetModule "\"^.^\""
par NetworkA.visualizer.statisticVisualizer visualizationSubjectModule "\"^.^\""
par NetworkA.visualizer.statisticVisualizer tags "\"\""
par NetworkA.visualizer.statisticVisualizer networkNodeVisualizerModule "\"^.networkNodeVisualizer\""
par NetworkA.visualizer.statisticVisualizer displayStatistics true
par NetworkA.visualizer.statisticVisualizer signalName "\"\""
par NetworkA.visualizer.statisticVisualizer statisticName "\"\""
par NetworkA.visualizer.statisticVisualizer statisticUnit "\"\""
par NetworkA.visualizer.statisticVisualizer statisticExpression "\"\""
par NetworkA.visualizer.statisticVisualizer sourceFilter "\"**\""
attr mutable ""
par NetworkA.visualizer.statisticVisualizer format "\"%n: %v %u\""
attr mutable ""
par NetworkA.visualizer.statisticVisualizer unit "\"\""
par NetworkA.visualizer.statisticVisualizer font "\"<default>\""
par NetworkA.visualizer.statisticVisualizer textColor "\"black\""
par NetworkA.visualizer.statisticVisualizer backgroundColor "\"white\""
par NetworkA.visualizer.statisticVisualizer opacity 1
par NetworkA.visualizer.statisticVisualizer placementHint "\"top\""
par NetworkA.visualizer.statisticVisualizer placementPriority 0
par NetworkA.visualizer.statisticVisualizer zIndex 10
par NetworkA.visualizer.statisticVisualizer propertyName "\"\""
par NetworkA.visualizer.statisticVisualizer propertyIndex "\"\""
par NetworkA.visualizer.infoVisualizer typename "\"inet.visualizer.canvas.common.InfoCanvasVisualizer\""
par NetworkA.visualizer.infoVisualizer visualizationTargetModule "\"^.^\""
par NetworkA.visualizer.infoVisualizer visualizationSubjectModule "\"^.^\""
par NetworkA.visualizer.infoVisualizer tags "\"\""
par NetworkA.visualizer.infoVisualizer networkNodeVisualizerModule "\"^.networkNodeVisualizer\""
par NetworkA.visualizer.infoVisualizer displayInfos true
par NetworkA.visualizer.infoVisualizer modules "\"*.server.app[0]\""
attr mutable ""
par NetworkA.visualizer.infoVisualizer format "\"%t\""
attr mutable ""
par NetworkA.visualizer.infoVisualizer font "\"<default>\""
par NetworkA.visualizer.infoVisualizer textColor "\"black\""
par NetworkA.visualizer.infoVisualizer backgroundColor "\"white\""
par NetworkA.visualizer.infoVisualizer opacity 1
par NetworkA.visualizer.infoVisualizer placementHint "\"top\""
par NetworkA.visualizer.infoVisualizer placementPriority 0
par NetworkA.visualizer.infoVisualizer zIndex 10
par NetworkA.visualizer.energyStorageVisualizer typename "\"inet.visualizer.canvas.power.EnergyStorageCanvasVisualizer\""
par NetworkA.visualizer.energyStorageVisualizer visualizationTargetModule "\"^.^\""
par NetworkA.visualizer.energyStorageVisualizer visualizationSubjectModule "\"^.^\""
par NetworkA.visualizer.energyStorageVisualizer tags "\"\""
par NetworkA.visualizer.energyStorageVisualizer networkNodeVisualizerModule "\"^.networkNodeVisualizer\""
par NetworkA.visualizer.energyStorageVisualizer displayEnergyStorages true
par NetworkA.visualizer.energyStorageVisualizer energyStorageFilter "\"**\""
par NetworkA.visualizer.energyStorageVisualizer color "\"green\""
par NetworkA.visualizer.energyStorageVisualizer width 8
par NetworkA.visualizer.energyStorageVisualizer height 24
par NetworkA.visualizer.energyStorageVisualizer spacing 2
par NetworkA.visualizer.energyStorageVisualizer placementHint "\"right\""
par NetworkA.visualizer.energyStorageVisualizer placementPriority 0
par NetworkA.visualizer.energyStorageVisualizer zIndex 10
par NetworkA.visualizer.mediumVisualizer typename "\"inet.visualizer.canvas.physicallayer.MediumCanvasVisualizer\""
par NetworkA.visualizer.mediumVisualizer visualizationTargetModule "\"^.^\""
par NetworkA.visualizer.mediumVisualizer visualizationSubjectModule "\"^.^\""
par NetworkA.visualizer.mediumVisualizer tags "\"\""
par NetworkA.visualizer.mediumVisualizer mediumModule "\"radioMedium\""
par NetworkA.visualizer.mediumVisualizer networkNodeVisualizerModule "\"^.networkNodeVisualizer\""
par NetworkA.visualizer.mediumVisualizer nodeFilter "\"*\""
attr mutable ""
par NetworkA.visualizer.mediumVisualizer interfaceFilter "\"*\""
attr mutable ""
par NetworkA.visualizer.mediumVisualizer packetFilter "(omnetpp::cValueHolder)holder: \"*\""
attr mutable ""
par NetworkA.visualizer.mediumVisualizer displaySignals false
par NetworkA.visualizer.mediumVisualizer signalColor "\"dark\""
par NetworkA.visualizer.mediumVisualizer signalPropagationAnimationSpeed "nan "
attr mutable ""
par NetworkA.visualizer.mediumVisualizer signalPropagationAnimationTime 1s
attr unit s
par NetworkA.visualizer.mediumVisualizer signalPropagationAdditionalTime 0s
attr unit s
par NetworkA.visualizer.mediumVisualizer signalTransmissionAnimationSpeed "nan "
attr mutable ""
par NetworkA.visualizer.mediumVisualizer signalTransmissionAnimationTime 1s
attr unit s
par NetworkA.visualizer.mediumVisualizer signalAnimationSpeedChangeTimeMode "\"realTime\""
attr enum realTime,animationTime,simulationTime
par NetworkA.visualizer.mediumVisualizer signalAnimationSpeedChangeTime 1s
attr unit s
par NetworkA.visualizer.mediumVisualizer displaySignalDepartures false
par NetworkA.visualizer.mediumVisualizer signalDepartureImage "\"misc/signal_departure.png\""
par NetworkA.visualizer.mediumVisualizer signalDeparturePlacementHint "\"topCenter\""
par NetworkA.visualizer.mediumVisualizer signalDeparturePlacementPriority 1
par NetworkA.visualizer.mediumVisualizer displaySignalArrivals false
par NetworkA.visualizer.mediumVisualizer signalArrivalImage "\"misc/signal_arrival.png\""
par NetworkA.visualizer.mediumVisualizer signalArrivalPlacementHint "\"topCenter\""
par NetworkA.visualizer.mediumVisualizer signalArrivalPlacementPriority -1
par NetworkA.visualizer.mediumVisualizer displayCommunicationRanges false
par NetworkA.visualizer.mediumVisualizer communicationRangeLineColor "\"blue\""
par NetworkA.visualizer.mediumVisualizer communicationRangeLineStyle "\"solid\""
par NetworkA.visualizer.mediumVisualizer communicationRangeLineWidth 1
par NetworkA.visualizer.mediumVisualizer displayInterferenceRanges false
par NetworkA.visualizer.mediumVisualizer interferenceRangeLineColor "\"gray\""
par NetworkA.visualizer.mediumVisualizer interferenceRangeLineStyle "\"solid\""
par NetworkA.visualizer.mediumVisualizer interferenceRangeLineWidth 1
par NetworkA.visualizer.mediumVisualizer autoPowerAxis true
par NetworkA.visualizer.mediumVisualizer signalMinPower "inf dBmW"
attr unit dBmW
par NetworkA.visualizer.mediumVisualizer signalMaxPower 0dBmW
attr unit dBmW
par NetworkA.visualizer.mediumVisualizer signalMinPowerDensity "inf dBmWpMHz"
attr unit dBmWpMHz
par NetworkA.visualizer.mediumVisualizer signalMaxPowerDensity "-inf dBmWpMHz"
attr unit dBmWpMHz
par NetworkA.visualizer.mediumVisualizer autoTimeAxis true
par NetworkA.visualizer.mediumVisualizer signalMinTime 0s
attr unit s
par NetworkA.visualizer.mediumVisualizer signalMaxTime 0s
attr unit s
par NetworkA.visualizer.mediumVisualizer autoFrequencyAxis true
par NetworkA.visualizer.mediumVisualizer signalMinFrequency "inf Hz"
attr unit Hz
par NetworkA.visualizer.mediumVisualizer signalMaxFrequency "-inf Hz"
attr unit Hz
par NetworkA.visualizer.mediumVisualizer displayMainPowerDensityMap false
par NetworkA.visualizer.mediumVisualizer mainPowerDensityMapPixmapDensity 1
par NetworkA.visualizer.mediumVisualizer mainPowerDensityMapMinX 0
par NetworkA.visualizer.mediumVisualizer mainPowerDensityMapMaxX "nan "
par NetworkA.visualizer.mediumVisualizer mainPowerDensityMapMinY 0
par NetworkA.visualizer.mediumVisualizer mainPowerDensityMapMaxY "nan "
par NetworkA.visualizer.mediumVisualizer mainPowerDensityMapZ 0
par NetworkA.visualizer.mediumVisualizer mainPowerDensityMapFigureXTickCount 3
par NetworkA.visualizer.mediumVisualizer mainPowerDensityMapFigureYTickCount 3
par NetworkA.visualizer.mediumVisualizer displayPowerDensityMaps false
par NetworkA.visualizer.mediumVisualizer powerDensityMapMode "\"auto\""
attr enum total,signal,auto
par NetworkA.visualizer.mediumVisualizer powerDensityMapPixelMode "\"mean\""
attr enum sample,partition,mean
par NetworkA.visualizer.mediumVisualizer powerDensityMapApproximationSize 10
par NetworkA.visualizer.mediumVisualizer powerDensityMapCenterFrequency "nan Hz"
attr mutable ""
attr unit Hz
par NetworkA.visualizer.mediumVisualizer powerDensityMapBandwidth 0Hz
attr mutable ""
attr unit Hz
par NetworkA.visualizer.mediumVisualizer powerDensityMapFigureWidth 200
par NetworkA.visualizer.mediumVisualizer powerDensityMapFigureHeight 120
par NetworkA.visualizer.mediumVisualizer powerDensityMapPixmapWidth 200
par NetworkA.visualizer.mediumVisualizer powerDensityMapPixmapHeight 120
par NetworkA.visualizer.mediumVisualizer powerDensityMapZ 0
par NetworkA.visualizer.mediumVisualizer powerDensityMapFigureXTickCount 3
par NetworkA.visualizer.mediumVisualizer powerDensityMapFigureYTickCount 3
par NetworkA.visualizer.mediumVisualizer displaySpectrums false
par NetworkA.visualizer.mediumVisualizer spectrumMode "\"auto\""
attr enum total,signal,auto
par NetworkA.visualizer.mediumVisualizer spectrumFigureWidth 200
par NetworkA.visualizer.mediumVisualizer spectrumFigureHeight 120
par NetworkA.visualizer.mediumVisualizer spectrumFigureXTickCount 3
par NetworkA.visualizer.mediumVisualizer spectrumFigureYTickCount 5
par NetworkA.visualizer.mediumVisualizer spectrumFigureInterpolationSize 5
par NetworkA.visualizer.mediumVisualizer spectrumPlacementHint "\"bottomCenter\""
par NetworkA.visualizer.mediumVisualizer spectrumPlacementPriority -1
par NetworkA.visualizer.mediumVisualizer displaySpectrograms false
par NetworkA.visualizer.mediumVisualizer spectrogramMode "\"auto\""
attr enum total,signal,auto
par NetworkA.visualizer.mediumVisualizer spectrogramPixelMode "\"mean\""
attr enum sample,partition,mean
par NetworkA.visualizer.mediumVisualizer spectrogramFigureWidth 200
par NetworkA.visualizer.mediumVisualizer spectrogramFigureHeight 120
par NetworkA.visualizer.mediumVisualizer spectrogramPixmapWidth 200
par NetworkA.visualizer.mediumVisualizer spectrogramPixmapHeight 120
par NetworkA.visualizer.mediumVisualizer spectrogramFigureXTickCount 3
par NetworkA.visualizer.mediumVisualizer spectrogramFigureYTickCount 5
par NetworkA.visualizer.mediumVisualizer spectrogramPlacementHint "\"bottomCenter\""
par NetworkA.visualizer.mediumVisualizer spectrogramPlacementPriority -1
par NetworkA.visualizer.mediumVisualizer zIndex 0
par NetworkA.visualizer.mediumVisualizer signalShape "\"ring\""
attr enum ring,sphere
par NetworkA.visualizer.mediumVisualizer signalOpacity 0.5
par NetworkA.visualizer.mediumVisualizer signalRingCount 20
par NetworkA.visualizer.mediumVisualizer signalRingSize 50m
attr unit m
par NetworkA.visualizer.mediumVisualizer signalFadingDistance 50m
attr unit m
par NetworkA.visualizer.mediumVisualizer signalFadingFactor 1.2
par NetworkA.visualizer.mediumVisualizer signalWaveCount 20
par NetworkA.visualizer.mediumVisualizer signalWaveLength 50m
attr unit m
par NetworkA.visualizer.mediumVisualizer signalWaveWidth 10m
attr unit m
par NetworkA.visualizer.mediumVisualizer signalWaveFadingAnimationSpeedFactor 1
par NetworkA.visualizer.mediumVisualizer displayCommunicationHeat false
par NetworkA.visualizer.obstacleLossVisualizer typename "\"inet.visualizer.canvas.physicallayer.TracingObstacleLossCanvasVisualizer\""
par NetworkA.visualizer.obstacleLossVisualizer visualizationTargetModule "\"^.^\""
par NetworkA.visualizer.obstacleLossVisualizer visualizationSubjectModule "\"^.^\""
par NetworkA.visualizer.obstacleLossVisualizer tags "\"\""
par NetworkA.visualizer.obstacleLossVisualizer displayIntersections false
par NetworkA.visualizer.obstacleLossVisualizer intersectionLineColor "\"red\""
par NetworkA.visualizer.obstacleLossVisualizer intersectionLineStyle "\"solid\""
par NetworkA.visualizer.obstacleLossVisualizer intersectionLineWidth 1
par NetworkA.visualizer.obstacleLossVisualizer displayFaceNormalVectors false
par NetworkA.visualizer.obstacleLossVisualizer faceNormalLineColor "\"grey\""
par NetworkA.visualizer.obstacleLossVisualizer faceNormalLineStyle "\"solid\""
par NetworkA.visualizer.obstacleLossVisualizer faceNormalLineWidth 1
par NetworkA.visualizer.obstacleLossVisualizer fadeOutMode "\"realTime\""
attr enum realTime,animationTime,simulationTime
par NetworkA.visualizer.obstacleLossVisualizer fadeOutTime 1s
attr unit s
par NetworkA.visualizer.obstacleLossVisualizer fadeOutAnimationSpeed 0
par NetworkA.visualizer.obstacleLossVisualizer zIndex 0
par NetworkA.visualizer.packetDropVisualizer typename "\"inet.visualizer.canvas.common.PacketDropCanvasVisualizer\""
par NetworkA.visualizer.packetDropVisualizer visualizationTargetModule "\"^.^\""
par NetworkA.visualizer.packetDropVisualizer visualizationSubjectModule "\"^.^\""
par NetworkA.visualizer.packetDropVisualizer tags "\"\""
par NetworkA.visualizer.packetDropVisualizer displayPacketDrops false
par NetworkA.visualizer.packetDropVisualizer nodeFilter "\"*\""
attr mutable ""
par NetworkA.visualizer.packetDropVisualizer interfaceFilter "\"*\""
attr mutable ""
par NetworkA.visualizer.packetDropVisualizer packetFilter "(omnetpp::cValueHolder)holder: \"*\""
attr mutable ""
par NetworkA.visualizer.packetDropVisualizer detailsFilter "\"*\""
attr mutable ""
par NetworkA.visualizer.packetDropVisualizer icon "\"msg/packet_s\""
par NetworkA.visualizer.packetDropVisualizer iconTintAmount 1
par NetworkA.visualizer.packetDropVisualizer iconTintColor "\"dark\""
par NetworkA.visualizer.packetDropVisualizer labelFormat "\"%n\""
attr mutable ""
par NetworkA.visualizer.packetDropVisualizer labelFont "\"<default>\""
par NetworkA.visualizer.packetDropVisualizer labelColor "\"black\""
par NetworkA.visualizer.packetDropVisualizer fadeOutMode "\"realTime\""
attr enum realTime,animationTime,simulationTime
par NetworkA.visualizer.packetDropVisualizer fadeOutTime 1s
attr unit s
par NetworkA.visualizer.packetDropVisualizer fadeOutAnimationSpeed 0
par NetworkA.visualizer.packetDropVisualizer zIndex 10
par NetworkA.visualizer.packetDropVisualizer dx 32
par NetworkA.visualizer.packetDropVisualizer dy 64
par NetworkA.visualizer.packetFlowVisualizer typename "\"inet.visualizer.canvas.flow.PacketFlowCanvasVisualizer\""
par NetworkA.visualizer.packetFlowVisualizer visualizationTargetModule "\"^.^\""
par NetworkA.visualizer.packetFlowVisualizer visualizationSubjectModule "\"^.^\""
par NetworkA.visualizer.packetFlowVisualizer tags "\"\""
par NetworkA.visualizer.packetFlowVisualizer displayRoutes false
par NetworkA.visualizer.packetFlowVisualizer startPathSignal "\"packetFlowStarted\""
par NetworkA.visualizer.packetFlowVisualizer extendPathSignal "\"packetReceivedFromLower\""
par NetworkA.visualizer.packetFlowVisualizer endPathSignal "\"packetFlowEnded\""
par NetworkA.visualizer.packetFlowVisualizer nodeFilter "\"*\""
attr mutable ""
par NetworkA.visualizer.packetFlowVisualizer packetFilter "(omnetpp::cValueHolder)holder: \"*\""
attr mutable ""
par NetworkA.visualizer.packetFlowVisualizer lineColor "\"dark\""
par NetworkA.visualizer.packetFlowVisualizer lineStyle "\"dashed\""
par NetworkA.visualizer.packetFlowVisualizer lineWidth 3
par NetworkA.visualizer.packetFlowVisualizer lineSmooth false
par NetworkA.visualizer.packetFlowVisualizer lineShift 16
par NetworkA.visualizer.packetFlowVisualizer lineShiftMode "\"normal\""
par NetworkA.visualizer.packetFlowVisualizer lineContactSpacing 3
par NetworkA.visualizer.packetFlowVisualizer lineContactMode "\"rectangular\""
attr enum circular,rectangular
par NetworkA.visualizer.packetFlowVisualizer labelFormat "\"%L %p pk (%l)\""
par NetworkA.visualizer.packetFlowVisualizer labelFont "\"<default>, 8px\""
par NetworkA.visualizer.packetFlowVisualizer labelColor "\"\""
par NetworkA.visualizer.packetFlowVisualizer fadeOutMode "\"realTime\""
attr enum realTime,animationTime,simulationTime
par NetworkA.visualizer.packetFlowVisualizer fadeOutTime 0s
attr unit s
par NetworkA.visualizer.packetFlowVisualizer fadeOutAnimationSpeed 0
par NetworkA.visualizer.packetFlowVisualizer zIndex 4
par NetworkA.visualizer.queueVisualizer typename "\"inet.visualizer.canvas.common.QueueCanvasVisualizer\""
par NetworkA.visualizer.queueVisualizer visualizationTargetModule "\"^.^\""
par NetworkA.visualizer.queueVisualizer visualizationSubjectModule "\"^.^\""
par NetworkA.visualizer.queueVisualizer tags "\"\""
par NetworkA.visualizer.queueVisualizer networkNodeVisualizerModule "\"^.networkNodeVisualizer\""
par NetworkA.visualizer.queueVisualizer displayQueues false
par NetworkA.visualizer.queueVisualizer queueFilter "\"**\""
par NetworkA.visualizer.queueVisualizer color "\"blue\""
par NetworkA.visualizer.queueVisualizer width 8
par NetworkA.visualizer.queueVisualizer height 24
par NetworkA.visualizer.queueVisualizer spacing 2
par NetworkA.visualizer.queueVisualizer placementHint "\"right\""
par NetworkA.visualizer.queueVisualizer placementPriority 0
par NetworkA.visualizer.queueVisualizer zIndex 10
par NetworkA.visualizer.gateScheduleVisualizer typename "\"inet.visualizer.canvas.common.GateScheduleCanvasVisualizer\""
par NetworkA.visualizer.gateScheduleVisualizer visualizationTargetModule "\"^.^\""
par NetworkA.visualizer.gateScheduleVisualizer visualizationSubjectModule "\"^.^\""
par NetworkA.visualizer.gateScheduleVisualizer tags "\"\""
par NetworkA.visualizer.gateScheduleVisualizer networkNodeVisualizerModule "\"^.networkNodeVisualizer\""
par NetworkA.visualizer.gateScheduleVisualizer displayGateSchedules false
par NetworkA.visualizer.gateScheduleVisualizer labelFormat "\"%i %D\""
par NetworkA.visualizer.gateScheduleVisualizer gateFilter "\"**\""
par NetworkA.visualizer.gateScheduleVisualizer width 100
par NetworkA.visualizer.gateScheduleVisualizer height 8
par NetworkA.visualizer.gateScheduleVisualizer spacing 2
par NetworkA.visualizer.gateScheduleVisualizer placementHint "\"right\""
par NetworkA.visualizer.gateScheduleVisualizer placementPriority 0
par NetworkA.visualizer.gateScheduleVisualizer displayDuration 0s
attr mutable ""
attr unit s
par NetworkA.visualizer.gateScheduleVisualizer currentTimePosition 50
par NetworkA.visualizer.gateScheduleVisualizer zIndex 10
par NetworkA.visualizer.radioVisualizer typename "\"inet.visualizer.canvas.physicallayer.RadioCanvasVisualizer\""
par NetworkA.visualizer.radioVisualizer visualizationTargetModule "\"^.^\""
par NetworkA.visualizer.radioVisualizer visualizationSubjectModule "\"^.^\""
par NetworkA.visualizer.radioVisualizer tags "\"\""
par NetworkA.visualizer.radioVisualizer networkNodeVisualizerModule "\"^.networkNodeVisualizer\""
par NetworkA.visualizer.radioVisualizer displayRadios false
par NetworkA.visualizer.radioVisualizer displayRadioMode true
par NetworkA.visualizer.radioVisualizer displayReceptionState true
par NetworkA.visualizer.radioVisualizer displayTransmissionState true
par NetworkA.visualizer.radioVisualizer displayAntennaLobes false
par NetworkA.visualizer.radioVisualizer radioFilter "\"**\""
attr mutable ""
par NetworkA.visualizer.radioVisualizer radioModeImages "\"block/process_vs block/timer_vs block/wrx_vs block/wtx_vs block/wrxtx_vs block/cogwheel_vs\""
par NetworkA.visualizer.radioVisualizer receptionStateImages "\"- - misc/receiving misc/receiving\""
par NetworkA.visualizer.radioVisualizer transmissionStateImages "\"- - misc/transmitting\""
par NetworkA.visualizer.radioVisualizer width 16
par NetworkA.visualizer.radioVisualizer height 16
par NetworkA.visualizer.radioVisualizer placementHint "\"bottomRight\""
par NetworkA.visualizer.radioVisualizer placementPriority 0
par NetworkA.visualizer.radioVisualizer antennaLobeNormalize false
par NetworkA.visualizer.radioVisualizer antennaLobeRelativeLabels false
par NetworkA.visualizer.radioVisualizer antennaLobePlaneGlobal true
par NetworkA.visualizer.radioVisualizer antennaLobePlane "\"view\""
attr enum view,xy,xz,yz
par NetworkA.visualizer.radioVisualizer antennaLobeMode "\"logarithmic\""
attr enum logarithmic,linear
par NetworkA.visualizer.radioVisualizer antennaLobeLogarithmicBase 10
par NetworkA.visualizer.radioVisualizer antennaLobeLogarithmicScale 100
par NetworkA.visualizer.radioVisualizer antennaLobeRadius 100
par NetworkA.visualizer.radioVisualizer antennaLobeStep 10deg
attr unit deg
par NetworkA.visualizer.radioVisualizer antennaLobeOpacity 0.25
par NetworkA.visualizer.radioVisualizer antennaLobeLineSmooth true
par NetworkA.visualizer.radioVisualizer antennaLobeLineColor "\"black\""
par NetworkA.visualizer.radioVisualizer antennaLobeLineStyle "\"solid\""
par NetworkA.visualizer.radioVisualizer antennaLobeLineWidth 1
par NetworkA.visualizer.radioVisualizer antennaLobeFillColor "\"white\""
par NetworkA.visualizer.radioVisualizer zIndex 10
par NetworkA.visualizer.physicalLinkVisualizer typename "\"inet.visualizer.canvas.physicallayer.PhysicalLinkCanvasVisualizer\""
par NetworkA.visualizer.physicalLinkVisualizer visualizationTargetModule "\"^.^\""
par NetworkA.visualizer.physicalLinkVisualizer visualizationSubjectModule "\"^.^\""
par NetworkA.visualizer.physicalLinkVisualizer tags "\"\""
par NetworkA.visualizer.physicalLinkVisualizer displayLinks true
par NetworkA.visualizer.physicalLinkVisualizer activityLevel "\"service\""
attr enum service,peer,protocol
par NetworkA.visualizer.physicalLinkVisualizer nodeFilter "\"*\""
attr mutable ""
par NetworkA.visualizer.physicalLinkVisualizer interfaceFilter "\"*\""
attr mutable ""
par NetworkA.visualizer.physicalLinkVisualizer packetFilter "(omnetpp::cValueHolder)holder: \"*\""
attr mutable ""
par NetworkA.visualizer.physicalLinkVisualizer lineColor "\"olive\""
par NetworkA.visualizer.physicalLinkVisualizer lineStyle "\"dotted\""
par NetworkA.visualizer.physicalLinkVisualizer lineWidth 3
par NetworkA.visualizer.physicalLinkVisualizer lineShift 16
par NetworkA.visualizer.physicalLinkVisualizer lineShiftMode "\"normal\""
par NetworkA.visualizer.physicalLinkVisualizer lineContactSpacing 3
par NetworkA.visualizer.physicalLinkVisualizer lineContactMode "\"rectangular\""
attr enum circular,rectangular
par NetworkA.visualizer.physicalLinkVisualizer labelFormat "\"%n\""
par NetworkA.visualizer.physicalLinkVisualizer labelFont "\"<default>, 8px\""
par NetworkA.visualizer.physicalLinkVisualizer labelColor "\"olive\""
par NetworkA.visualizer.physicalLinkVisualizer fadeOutMode "\"realTime\""
attr enum realTime,animationTime,simulationTime
par NetworkA.visualizer.physicalLinkVisualizer fadeOutTime 1s
attr unit s
par NetworkA.visualizer.physicalLinkVisualizer fadeOutAnimationSpeed 0
par NetworkA.visualizer.physicalLinkVisualizer holdAnimationTime 0s
attr unit s
par NetworkA.visualizer.physicalLinkVisualizer zIndex 1
par NetworkA.visualizer.interfaceTableVisualizer typename "\"inet.visualizer.canvas.linklayer.InterfaceTableCanvasVisualizer\""
par NetworkA.visualizer.interfaceTableVisualizer visualizationTargetModule "\"^.^\""
par NetworkA.visualizer.interfaceTableVisualizer visualizationSubjectModule "\"^.^\""
par NetworkA.visualizer.interfaceTableVisualizer tags "\"\""
par NetworkA.visualizer.interfaceTableVisualizer networkNodeVisualizerModule "\"^.networkNodeVisualizer\""
par NetworkA.visualizer.interfaceTableVisualizer displayInterfaceTables false
par NetworkA.visualizer.interfaceTableVisualizer displayWiredInterfacesAtConnections true
par NetworkA.visualizer.interfaceTableVisualizer displayBackground false
par NetworkA.visualizer.interfaceTableVisualizer nodeFilter "\"*\""
attr mutable ""
par NetworkA.visualizer.interfaceTableVisualizer interfaceFilter "\"not(lo*)\""
attr mutable ""
par NetworkA.visualizer.interfaceTableVisualizer format "\"%N %\\\\%a%/%l\""
attr mutable ""
par NetworkA.visualizer.interfaceTableVisualizer placementHint "\"top\""
par NetworkA.visualizer.interfaceTableVisualizer placementPriority 0
par NetworkA.visualizer.interfaceTableVisualizer font "\"<default>\""
par NetworkA.visualizer.interfaceTableVisualizer textColor "\"#005030\""
par NetworkA.visualizer.interfaceTableVisualizer backgroundColor "\"white\""
par NetworkA.visualizer.interfaceTableVisualizer opacity 1
par NetworkA.visualizer.interfaceTableVisualizer zIndex 10
par NetworkA.visualizer.dataLinkVisualizer typename "\"inet.visualizer.canvas.linklayer.DataLinkCanvasVisualizer\""
par NetworkA.visualizer.dataLinkVisualizer visualizationTargetModule "\"^.^\""
par NetworkA.visualizer.dataLinkVisualizer visualizationSubjectModule "\"^.^\""
par NetworkA.visualizer.dataLinkVisualizer tags "\"\""
par NetworkA.visualizer.dataLinkVisualizer displayLinks false
par NetworkA.visualizer.dataLinkVisualizer activityLevel "\"service\""
attr enum service,peer,protocol
par NetworkA.visualizer.dataLinkVisualizer nodeFilter "\"*\""
attr mutable ""
par NetworkA.visualizer.dataLinkVisualizer interfaceFilter "\"*\""
attr mutable ""
par NetworkA.visualizer.dataLinkVisualizer packetFilter "(omnetpp::cValueHolder)holder: \"*\""
attr mutable ""
par NetworkA.visualizer.dataLinkVisualizer lineColor "\"darkcyan\""
par NetworkA.visualizer.dataLinkVisualizer lineStyle "\"solid\""
par NetworkA.visualizer.dataLinkVisualizer lineWidth 3
par NetworkA.visualizer.dataLinkVisualizer lineShift 16
par NetworkA.visualizer.dataLinkVisualizer lineShiftMode "\"normal\""
par NetworkA.visualizer.dataLinkVisualizer lineContactSpacing 3
par NetworkA.visualizer.dataLinkVisualizer lineContactMode "\"rectangular\""
attr enum circular,rectangular
par NetworkA.visualizer.dataLinkVisualizer labelFormat "\"%n\""
par NetworkA.visualizer.dataLinkVisualizer labelFont "\"<default>, 8px\""
par NetworkA.visualizer.dataLinkVisualizer labelColor "\"darkcyan\""
par NetworkA.visualizer.dataLinkVisualizer fadeOutMode "\"realTime\""
attr enum realTime,animationTime,simulationTime
par NetworkA.visualizer.dataLinkVisualizer fadeOutTime 1s
attr unit s
par NetworkA.visualizer.dataLinkVisualizer fadeOutAnimationSpeed 0
par NetworkA.visualizer.dataLinkVisualizer holdAnimationTime 0s
attr unit s
par NetworkA.visualizer.dataLinkVisualizer zIndex 2
par NetworkA.visualizer.linkBreakVisualizer typename "\"inet.visualizer.canvas.linklayer.LinkBreakCanvasVisualizer\""
par NetworkA.visualizer.linkBreakVisualizer visualizationTargetModule "\"^.^\""
par NetworkA.visualizer.linkBreakVisualizer visualizationSubjectModule "\"^.^\""
par NetworkA.visualizer.linkBreakVisualizer tags "\"\""
par NetworkA.visualizer.linkBreakVisualizer displayLinkBreaks false
par NetworkA.visualizer.linkBreakVisualizer nodeFilter "\"*\""
attr mutable ""
par NetworkA.visualizer.linkBreakVisualizer interfaceFilter "\"*\""
attr mutable ""
par NetworkA.visualizer.linkBreakVisualizer packetFilter "(omnetpp::cValueHolder)holder: \"*\""
attr mutable ""
par NetworkA.visualizer.linkBreakVisualizer icon "\"status/stop\""
par NetworkA.visualizer.linkBreakVisualizer iconTintAmount 0
par NetworkA.visualizer.linkBreakVisualizer iconTintColor "\"\""
par NetworkA.visualizer.linkBreakVisualizer fadeOutMode "\"realTime\""
attr enum realTime,animationTime,simulationTime
par NetworkA.visualizer.linkBreakVisualizer fadeOutTime 1s
attr unit s
par NetworkA.visualizer.linkBreakVisualizer fadeOutAnimationSpeed 0
par NetworkA.visualizer.linkBreakVisualizer zIndex 2
par NetworkA.visualizer.ieee80211Visualizer typename "\"inet.visualizer.canvas.linklayer.Ieee80211CanvasVisualizer\""
par NetworkA.visualizer.ieee80211Visualizer visualizationTargetModule "\"^.^\""
par NetworkA.visualizer.ieee80211Visualizer visualizationSubjectModule "\"^.^\""
par NetworkA.visualizer.ieee80211Visualizer tags "\"\""
par NetworkA.visualizer.ieee80211Visualizer networkNodeVisualizerModule "\"^.networkNodeVisualizer\""
par NetworkA.visualizer.ieee80211Visualizer displayAssociations false
par NetworkA.visualizer.ieee80211Visualizer nodeFilter "\"*\""
attr mutable ""
par NetworkA.visualizer.ieee80211Visualizer interfaceFilter "\"*\""
attr mutable ""
par NetworkA.visualizer.ieee80211Visualizer minPower -85dBm
attr unit dBm
par NetworkA.visualizer.ieee80211Visualizer maxPower -50dBm
attr unit dBm
par NetworkA.visualizer.ieee80211Visualizer icons "\"misc/signal_power_0 misc/signal_power_1 misc/signal_power_2 misc/signal_power_3\""
par NetworkA.visualizer.ieee80211Visualizer iconColor "\"dark\""
par NetworkA.visualizer.ieee80211Visualizer labelFont "\"<default>\""
par NetworkA.visualizer.ieee80211Visualizer labelColor "\"black\""
par NetworkA.visualizer.ieee80211Visualizer placementHint "\"top\""
par NetworkA.visualizer.ieee80211Visualizer placementPriority 0
par NetworkA.visualizer.ieee80211Visualizer zIndex 2
par NetworkA.visualizer.networkRouteVisualizer typename "\"inet.visualizer.canvas.networklayer.NetworkRouteCanvasVisualizer\""
par NetworkA.visualizer.networkRouteVisualizer visualizationTargetModule "\"^.^\""
par NetworkA.visualizer.networkRouteVisualizer visualizationSubjectModule "\"^.^\""
par NetworkA.visualizer.networkRouteVisualizer tags "\"\""
par NetworkA.visualizer.networkRouteVisualizer displayRoutes true
par NetworkA.visualizer.networkRouteVisualizer startPathSignal "\"packetReceivedFromUpper\""
par NetworkA.visualizer.networkRouteVisualizer extendPathSignal "\"packetReceivedFromLower\""
par NetworkA.visualizer.networkRouteVisualizer endPathSignal "\"packetSentToUpper\""
par NetworkA.visualizer.networkRouteVisualizer nodeFilter "\"*\""
attr mutable ""
par NetworkA.visualizer.networkRouteVisualizer packetFilter "(omnetpp::cValueHolder)holder: \"*\""
attr mutable ""
par NetworkA.visualizer.networkRouteVisualizer lineColor "\"dark\""
par NetworkA.visualizer.networkRouteVisualizer lineStyle "\"solid\""
par NetworkA.visualizer.networkRouteVisualizer lineWidth 3
par NetworkA.visualizer.networkRouteVisualizer lineSmooth false
par NetworkA.visualizer.networkRouteVisualizer lineShift 16
par NetworkA.visualizer.networkRouteVisualizer lineShiftMode "\"normal\""
par NetworkA.visualizer.networkRouteVisualizer lineContactSpacing 3
par NetworkA.visualizer.networkRouteVisualizer lineContactMode "\"rectangular\""
attr enum circular,rectangular
par NetworkA.visualizer.networkRouteVisualizer labelFormat "\"%n\""
par NetworkA.visualizer.networkRouteVisualizer labelFont "\"<default>, 8px\""
par NetworkA.visualizer.networkRouteVisualizer labelColor "\"\""
par NetworkA.visualizer.networkRouteVisualizer fadeOutMode "\"realTime\""
attr enum realTime,animationTime,simulationTime
par NetworkA.visualizer.networkRouteVisualizer fadeOutTime 1s
attr unit s
par NetworkA.visualizer.networkRouteVisualizer fadeOutAnimationSpeed 0
par NetworkA.visualizer.networkRouteVisualizer zIndex 3
par NetworkA.visualizer.routingTableVisualizer typename "\"inet.visualizer.canvas.networklayer.RoutingTableCanvasVisualizer\""
par NetworkA.visualizer.routingTableVisualizer visualizationTargetModule "\"^.^\""
par NetworkA.visualizer.routingTableVisualizer visualizationSubjectModule "\"^.^\""
par NetworkA.visualizer.routingTableVisualizer tags "\"\""
par NetworkA.visualizer.routingTableVisualizer displayRoutingTables false
par NetworkA.visualizer.routingTableVisualizer displayRoutesIndividually true
par NetworkA.visualizer.routingTableVisualizer displayLabels true
par NetworkA.visualizer.routingTableVisualizer destinationFilter "\"*\""
attr mutable ""
par NetworkA.visualizer.routingTableVisualizer nodeFilter "\"*\""
attr mutable ""
par NetworkA.visualizer.routingTableVisualizer lineColor "\"black\""
par NetworkA.visualizer.routingTableVisualizer lineStyle "\"solid\""
par NetworkA.visualizer.routingTableVisualizer lineWidth 2
par NetworkA.visualizer.routingTableVisualizer lineShift 0
par NetworkA.visualizer.routingTableVisualizer lineShiftMode "\"normal\""
par NetworkA.visualizer.routingTableVisualizer lineContactSpacing 3
par NetworkA.visualizer.routingTableVisualizer lineContactMode "\"rectangular\""
attr enum circular,rectangular
par NetworkA.visualizer.routingTableVisualizer labelFormat "\"%d/%m -> %g (%n)\""
attr mutable ""
par NetworkA.visualizer.routingTableVisualizer labelFont "\"<default>, 8px\""
par NetworkA.visualizer.routingTableVisualizer labelColor "\"black\""
par NetworkA.visualizer.routingTableVisualizer zIndex 0
par NetworkA.visualizer.transportRouteVisualizer typename "\"inet.visualizer.canvas.transportlayer.TransportRouteCanvasVisualizer\""
par NetworkA.visualizer.transportRouteVisualizer visualizationTargetModule "\"^.^\""
par NetworkA.visualizer.transportRouteVisualizer visualizationSubjectModule "\"^.^\""
par NetworkA.visualizer.transportRouteVisualizer tags "\"\""
par NetworkA.visualizer.transportRouteVisualizer displayRoutes false
par NetworkA.visualizer.transportRouteVisualizer startPathSignal "\"packetReceivedFromUpper\""
par NetworkA.visualizer.transportRouteVisualizer extendPathSignal "\"packetReceivedFromLower\""
par NetworkA.visualizer.transportRouteVisualizer endPathSignal "\"packetSentToUpper\""
par NetworkA.visualizer.transportRouteVisualizer nodeFilter "\"*\""
attr mutable ""
par NetworkA.visualizer.transportRouteVisualizer packetFilter "(omnetpp::cValueHolder)holder: \"*\""
attr mutable ""
par NetworkA.visualizer.transportRouteVisualizer lineColor "\"dark\""
par NetworkA.visualizer.transportRouteVisualizer lineStyle "\"solid\""
par NetworkA.visualizer.transportRouteVisualizer lineWidth 3
par NetworkA.visualizer.transportRouteVisualizer lineSmooth false
par NetworkA.visualizer.transportRouteVisualizer lineShift 16
par NetworkA.visualizer.transportRouteVisualizer lineShiftMode "\"normal\""
par NetworkA.visualizer.transportRouteVisualizer lineContactSpacing 3
par NetworkA.visualizer.transportRouteVisualizer lineContactMode "\"rectangular\""
attr enum circular,rectangular
par NetworkA.visualizer.transportRouteVisualizer labelFormat "\"%n\""
par NetworkA.visualizer.transportRouteVisualizer labelFont "\"<default>, 8px\""
par NetworkA.visualizer.transportRouteVisualizer labelColor "\"\""
par NetworkA.visualizer.transportRouteVisualizer fadeOutMode "\"realTime\""
attr enum realTime,animationTime,simulationTime
par NetworkA.visualizer.transportRouteVisualizer fadeOutTime 1s
attr unit s
par NetworkA.visualizer.transportRouteVisualizer fadeOutAnimationSpeed 0
par NetworkA.visualizer.transportRouteVisualizer zIndex 4
par NetworkA.visualizer.transportConnectionVisualizer typename "\"inet.visualizer.canvas.transportlayer.TransportConnectionCanvasVisualizer\""
par NetworkA.visualizer.transportConnectionVisualizer visualizationTargetModule "\"^.^\""
par NetworkA.visualizer.transportConnectionVisualizer visualizationSubjectModule "\"^.^\""
par NetworkA.visualizer.transportConnectionVisualizer tags "\"\""
par NetworkA.visualizer.transportConnectionVisualizer networkNodeVisualizerModule "\"^.networkNodeVisualizer\""
par NetworkA.visualizer.transportConnectionVisualizer displayTransportConnections false
par NetworkA.visualizer.transportConnectionVisualizer sourceNodeFilter "\"*\""
attr mutable ""
par NetworkA.visualizer.transportConnectionVisualizer sourcePortFilter "\"*\""
attr mutable ""
par NetworkA.visualizer.transportConnectionVisualizer destinationNodeFilter "\"*\""
attr mutable ""
par NetworkA.visualizer.transportConnectionVisualizer destinationPortFilter "\"*\""
attr mutable ""
par NetworkA.visualizer.transportConnectionVisualizer icon "\"misc/marker_s\""
par NetworkA.visualizer.transportConnectionVisualizer iconColor "\"dark\""
par NetworkA.visualizer.transportConnectionVisualizer labelFont "\"<default>\""
par NetworkA.visualizer.transportConnectionVisualizer labelColor "\"black\""
par NetworkA.visualizer.transportConnectionVisualizer placementHint "\"top\""
par NetworkA.visualizer.transportConnectionVisualizer placementPriority 0
par NetworkA.visualizer.transportConnectionVisualizer zIndex 4
par NetworkA.visualizer.failureProtectionConfigurationVisualizer typename "\"inet.visualizer.canvas.configurator.FailureProtectionConfigurationCanvasVisualizer\""
par NetworkA.visualizer.failureProtectionConfigurationVisualizer visualizationTargetModule "\"^.^\""
par NetworkA.visualizer.failureProtectionConfigurationVisualizer visualizationSubjectModule "\"^.^\""
par NetworkA.visualizer.failureProtectionConfigurationVisualizer tags "\"\""
par NetworkA.visualizer.failureProtectionConfigurationVisualizer displayTrees false
par NetworkA.visualizer.failureProtectionConfigurationVisualizer lineColor "\"dark\""
par NetworkA.visualizer.failureProtectionConfigurationVisualizer lineStyle "\"solid\""
par NetworkA.visualizer.failureProtectionConfigurationVisualizer lineWidth 3
par NetworkA.visualizer.failureProtectionConfigurationVisualizer lineSmooth false
par NetworkA.visualizer.failureProtectionConfigurationVisualizer lineShift 16
par NetworkA.visualizer.failureProtectionConfigurationVisualizer lineShiftMode "\"normal\""
par NetworkA.visualizer.failureProtectionConfigurationVisualizer lineContactSpacing 3
par NetworkA.visualizer.failureProtectionConfigurationVisualizer lineContactMode "\"rectangular\""
attr enum circular,rectangular
par NetworkA.visualizer.failureProtectionConfigurationVisualizer failureProtectionConfiguratorModule "\"failureProtectionConfigurator\""
par NetworkA.visualizer.failureProtectionConfigurationVisualizer streamFilter "\"*\""
par NetworkA.visualizer.failureProtectionConfigurationVisualizer zIndex 3
par NetworkA.visualizer.streamRedundancyConfigurationVisualizer typename "\"inet.visualizer.canvas.configurator.StreamRedundancyConfigurationCanvasVisualizer\""
par NetworkA.visualizer.streamRedundancyConfigurationVisualizer visualizationTargetModule "\"^.^\""
par NetworkA.visualizer.streamRedundancyConfigurationVisualizer visualizationSubjectModule "\"^.^\""
par NetworkA.visualizer.streamRedundancyConfigurationVisualizer tags "\"\""
par NetworkA.visualizer.streamRedundancyConfigurationVisualizer displayTrees false
par NetworkA.visualizer.streamRedundancyConfigurationVisualizer lineColor "\"dark\""
par NetworkA.visualizer.streamRedundancyConfigurationVisualizer lineStyle "\"solid\""
par NetworkA.visualizer.streamRedundancyConfigurationVisualizer lineWidth 3
par NetworkA.visualizer.streamRedundancyConfigurationVisualizer lineSmooth false
par NetworkA.visualizer.streamRedundancyConfigurationVisualizer lineShift 16
par NetworkA.visualizer.streamRedundancyConfigurationVisualizer lineShiftMode "\"normal\""
par NetworkA.visualizer.streamRedundancyConfigurationVisualizer lineContactSpacing 3
par NetworkA.visualizer.streamRedundancyConfigurationVisualizer lineContactMode "\"rectangular\""
attr enum circular,rectangular
par NetworkA.visualizer.streamRedundancyConfigurationVisualizer streamRedundancyConfiguratorModule "\"streamRedundancyConfigurator\""
par NetworkA.visualizer.streamRedundancyConfigurationVisualizer streamFilter "\"*\""
par NetworkA.visualizer.streamRedundancyConfigurationVisualizer zIndex 3
par NetworkA.visualizer typename "\"inet.visualizer.canvas.integrated.IntegratedCanvasVisualizer\""
par NetworkA.radioMedium.propagation typename "\"inet.physicallayer.wireless.common.propagation.ConstantSpeedPropagation\""
par NetworkA.radioMedium.propagation propagationSpeed 2.99792e+08mps
attr unit mps
par NetworkA.radioMedium.propagation ignoreMovementDuringTransmission true
par NetworkA.radioMedium.propagation ignoreMovementDuringPropagation true
par NetworkA.radioMedium.propagation ignoreMovementDuringReception true
scalar NetworkA.radioMedium.propagation "Arrival computation count" 34620
par NetworkA.radioMedium.analogModel typename "\"inet.physicallayer.wireless.common.analogmodel.packetlevel.ScalarAnalogModel\""
par NetworkA.radioMedium.analogModel ignorePartialInterference false
par NetworkA.radioMedium.backgroundNoise typename "\"inet.physicallayer.wireless.common.backgroundnoise.IsotropicScalarBackgroundNoise\""
par NetworkA.radioMedium.backgroundNoise power -96.616dBm
attr unit dBm
par NetworkA.radioMedium.backgroundNoise bandwidth "nan Hz"
attr unit Hz
par NetworkA.radioMedium.pathLoss typename "\"inet.physicallayer.wireless.common.pathloss.BreakpointPathLoss\""
par NetworkA.radioMedium.pathLoss l01 40.2
par NetworkA.radioMedium.pathLoss l02 58.5
par NetworkA.radioMedium.pathLoss alpha1 2
par NetworkA.radioMedium.pathLoss alpha2 3.3
par NetworkA.radioMedium.pathLoss breakpointDistance 8m
attr unit m
par NetworkA.radioMedium.mediumLimitCache typename "\"inet.physicallayer.wireless.common.medium.MediumLimitCache\""
par NetworkA.radioMedium.mediumLimitCache centerFrequency 2.45e+09Hz
attr unit Hz
par NetworkA.radioMedium.mediumLimitCache maxSpeed "nan mps"
attr unit mps
par NetworkA.radioMedium.mediumLimitCache maxTransmissionPower "nan W"
attr unit W
par NetworkA.radioMedium.mediumLimitCache minInterferencePower "nan dBm"
attr unit dBm
par NetworkA.radioMedium.mediumLimitCache minReceptionPower "nan dBm"
attr unit dBm
par NetworkA.radioMedium.mediumLimitCache maxAntennaGain 0dB
attr unit dB
par NetworkA.radioMedium.mediumLimitCache minInterferenceTime 1e-12s
attr unit s
par NetworkA.radioMedium.mediumLimitCache maxTransmissionDuration 0.1s
attr unit s
par NetworkA.radioMedium.mediumLimitCache maxCommunicationRange "nan m"
attr unit m
par NetworkA.radioMedium.mediumLimitCache maxInterferenceRange "nan m"
attr unit m
par NetworkA.radioMedium.communicationCache typename "\"inet.physicallayer.wireless.common.communicationcache.VectorCommunicationCache\""
par NetworkA.radioMedium typename "\"inet.physicallayer.wireless.ieee802154.packetlevel.Ieee802154NarrowbandScalarRadioMedium\""
par NetworkA.radioMedium physicalEnvironmentModule "\"physicalEnvironment\""
par NetworkA.radioMedium signalAnalogRepresentation "\"scalar\""
attr enum unitDisk,scalar,dimensional
par NetworkA.radioMedium rangeFilter "\"\""
par NetworkA.radioMedium radioModeFilter false
par NetworkA.radioMedium listeningFilter false
par NetworkA.radioMedium macAddressFilter false
par NetworkA.radioMedium recordTransmissionLog false
par NetworkA.radioMedium recordReceptionLog false
scalar NetworkA.radioMedium "transmission count" 6924
scalar NetworkA.radioMedium "signal send count" 34620
scalar NetworkA.radioMedium "reception computation count" 26062
scalar NetworkA.radioMedium "interference computation count" 50364
scalar NetworkA.radioMedium "reception decision computation count" 14496
scalar NetworkA.radioMedium "listening decision computation count" 20706
scalar NetworkA.radioMedium "reception cache hit" 77.629376571875
attr unit %
scalar NetworkA.radioMedium "interference cache hit" 66.666666666667
attr unit %
scalar NetworkA.radioMedium "noise cache hit" 0
attr unit %
scalar NetworkA.radioMedium "snir cache hit" 50
attr unit %
scalar NetworkA.radioMedium "reception decision cache hit" 50
attr unit %
scalar NetworkA.radioMedium "reception result cache hit" 0
attr unit %
par NetworkA.sensor4.radioIn[0].channel typename "\"ned.IdealChannel\""
par NetworkA.sensor4.status typename "\"inet.common.lifecycle.NodeStatus\""
par NetworkA.sensor4.status initialStatus "\"UP\""
par NetworkA.sensor4.energyStorage typename "\"inet.power.storage.SimpleEpEnergyStorage\""
par NetworkA.sensor4.energyStorage nominalCapacity 0.5J
attr unit J
par NetworkA.sensor4.energyStorage initialCapacity 0.5J
attr unit J
par NetworkA.sensor4.energyStorage printCapacityStep 0.005J
attr unit J
par NetworkA.sensor4.energyStorage displayStringTextFormat "\"%c (%p)\""
scalar NetworkA.sensor4.energyStorage residualEnergyCapacity:last 0.00499999999995
attr interpolationmode linear
attr recordingmode last
attr source residualEnergyCapacityChanged
attr title "Residual energy capacity, last"
attr unit J
par NetworkA.sensor4.energyManagement typename "\"inet.power.management.SimpleEpEnergyManagement\""
par NetworkA.sensor4.energyManagement nodeShutdownCapacity 0.005J
attr unit J
par NetworkA.sensor4.energyManagement nodeStartCapacity "nan J"
attr unit J
par NetworkA.sensor4.mobility typename "\"inet.mobility.static.StationaryMobility\""
par NetworkA.sensor4.mobility subjectModule "\"^\""
par NetworkA.sensor4.mobility coordinateSystemModule "\"\""
par NetworkA.sensor4.mobility displayStringTextFormat "\"p: %p\\nv: %v\""
attr mutable ""
par NetworkA.sensor4.mobility updateDisplayString true
par NetworkA.sensor4.mobility constraintAreaMinX "-inf m"
attr unit m
par NetworkA.sensor4.mobility constraintAreaMinY "-inf m"
attr unit m
par NetworkA.sensor4.mobility constraintAreaMinZ "-inf m"
attr unit m
par NetworkA.sensor4.mobility constraintAreaMaxX "inf m"
attr unit m
par NetworkA.sensor4.mobility constraintAreaMaxY "inf m"
attr unit m
par NetworkA.sensor4.mobility constraintAreaMaxZ "inf m"
attr unit m
par NetworkA.sensor4.mobility initialX "nan m"
attr unit m
par NetworkA.sensor4.mobility initialY "nan m"
attr unit m
par NetworkA.sensor4.mobility initialZ 0m
attr unit m
par NetworkA.sensor4.mobility initialLatitude "nan deg"
attr unit deg
par NetworkA.sensor4.mobility initialLongitude "nan deg"
attr unit deg
par NetworkA.sensor4.mobility initialAltitude 0m
attr unit m
par NetworkA.sensor4.mobility initialHeading 0deg
attr unit deg
par NetworkA.sensor4.mobility initialElevation 0deg
attr unit deg
par NetworkA.sensor4.mobility initialBank 0deg
attr unit deg
par NetworkA.sensor4.mobility initFromDisplayString true
par NetworkA.sensor4.mobility updateFromDisplayString true
par NetworkA.sensor4.interfaceTable typename "\"inet.networklayer.common.InterfaceTable\""
par NetworkA.sensor4.interfaceTable displayAddresses false
par NetworkA.sensor4.cb typename "\"inet.common.MessageDispatcher\""
par NetworkA.sensor4.cb displayStringTextFormat "\"processed %p pk (%l)\""
par NetworkA.sensor4.cb forwardServiceRegistration true
par NetworkA.sensor4.cb forwardProtocolRegistration true
par NetworkA.sensor4.bl typename "\"inet.common.MessageDispatcher\""
par NetworkA.sensor4.bl displayStringTextFormat "\"processed %p pk (%l)\""
par NetworkA.sensor4.bl forwardServiceRegistration true
par NetworkA.sensor4.bl forwardProtocolRegistration true
par NetworkA.sensor4.li typename "\"inet.common.MessageDispatcher\""
par NetworkA.sensor4.li displayStringTextFormat "\"processed %p pk (%l)\""
par NetworkA.sensor4.li forwardServiceRegistration true
par NetworkA.sensor4.li forwardProtocolRegistration true
par NetworkA.sensor4.lo[0].upperLayerIn.channel typename "\"ned.IdealChannel\""
par NetworkA.sensor4.lo[0].lo.upperLayerOut.channel typename "\"ned.IdealChannel\""
par NetworkA.sensor4.lo[0].lo typename "\"inet.linklayer.loopback.Loopback\""
par NetworkA.sensor4.lo[0].lo interfaceTableModule "\"NetworkA.sensor4.interfaceTable\""
par NetworkA.sensor4.lo[0].lo mtu 4470B
attr unit B
scalar NetworkA.sensor4.lo[0].lo rcvdPkFromHl:count 0
attr interpolationmode none
attr recordingmode count
attr source packetReceivedFromUpper
attr title "packets received from higher layer, count"
scalar NetworkA.sensor4.lo[0].lo rcvdPkFromHl:sum(packetBytes) 0
attr interpolationmode none
attr recordingmode sum(packetBytes)
attr source packetReceivedFromUpper
attr title "packets received from higher layer, sum(packetBytes)"
scalar NetworkA.sensor4.lo[0].lo passedUpPk:count 0
attr interpolationmode none
attr recordingmode count
attr source packetSentToUpper
attr title "packets passed to higher layer, count"
scalar NetworkA.sensor4.lo[0].lo passedUpPk:sum(packetBytes) 0
attr interpolationmode none
attr recordingmode sum(packetBytes)
attr source packetSentToUpper
attr title "packets passed to higher layer, sum(packetBytes)"
par NetworkA.sensor4.lo[0] typename "\"inet.linklayer.loopback.LoopbackInterface\""
par NetworkA.sensor4.lo[0] displayStringTextFormat "\"%a (%i)\\n%m\""
par NetworkA.sensor4.lo[0] recordPcap false
par NetworkA.sensor4.lo[0] numPcapRecorders 0
par NetworkA.sensor4.lo[0] interfaceTableModule "\"NetworkA.sensor4.interfaceTable\""
scalar NetworkA.sensor4.lo[0] packetDropInterfaceDown:count 0
attr interpolationmode none
attr recordingmode count
attr source packetDropReasonIsInterfaceDown(packetDropped)
attr title "packet drops: interface down, count"
scalar NetworkA.sensor4.lo[0] packetDropInterfaceDown:sum(packetBytes) 0
attr interpolationmode none
attr recordingmode sum(packetBytes)
attr source packetDropReasonIsInterfaceDown(packetDropped)
attr title "packet drops: interface down, sum(packetBytes)"
scalar NetworkA.sensor4.lo[0] packetDropNoCarrier:count 0
attr interpolationmode none
attr recordingmode count
attr source packetDropReasonIsNoCarrier(packetDropped)
attr title "packet drops: no carrier, count"
scalar NetworkA.sensor4.lo[0] packetDropNoCarrier:sum(packetBytes) 0
attr interpolationmode none
attr recordingmode sum(packetBytes)
attr source packetDropReasonIsNoCarrier(packetDropped)
attr title "packet drops: no carrier, sum(packetBytes)"
par NetworkA.sensor4.wlan[0].radioIn.channel typename "\"ned.IdealChannel\""
par NetworkA.sensor4.wlan[0].mac.upperLayerOut.channel typename "\"ned.IdealChannel\""
par NetworkA.sensor4.wlan[0].upperLayerIn.channel typename "\"ned.IdealChannel\""
par NetworkA.sensor4.wlan[0].queue typename "\"inet.queueing.queue.DropTailQueue\""
par NetworkA.sensor4.wlan[0].queue displayStringTextFormat "\"contains %p pk (%l) pushed %u\\npulled %o removed %r dropped %d\""
par NetworkA.sensor4.wlan[0].queue packetCapacity 50
par NetworkA.sensor4.wlan[0].queue dataCapacity -1b
attr unit b
par NetworkA.sensor4.wlan[0].queue dropperClass "\"inet::queueing::PacketAtCollectionEndDropper\""
par NetworkA.sensor4.wlan[0].queue comparatorClass "\"\""
par NetworkA.sensor4.wlan[0].queue bufferModule "\"\""
scalar NetworkA.sensor4.wlan[0].queue queueLength:last 1
attr autoWarmupFilter false
attr interpolationmode sample-hold
attr recordingmode last
attr source "warmup(atomic(constant0(packetPushEnded) + count(packetPushStarted) - count(packetPulled) - count(packetRemoved) - count(packetDropped)))"
attr title "queue length, last"
attr unit pk
scalar NetworkA.sensor4.wlan[0].queue queueLength:max 1
attr autoWarmupFilter false
attr interpolationmode sample-hold
attr recordingmode max
attr source "warmup(atomic(constant0(packetPushEnded) + count(packetPushStarted) - count(packetPulled) - count(packetRemoved) - count(packetDropped)))"
attr title "queue length, max"
attr unit pk
scalar NetworkA.sensor4.wlan[0].queue queueLength:timeavg 0.4603418499568
attr autoWarmupFilter false
attr interpolationmode sample-hold
attr recordingmode timeavg
attr source "warmup(atomic(constant0(packetPushEnded) + count(packetPushStarted) - count(packetPulled) - count(packetRemoved) - count(packetDropped)))"
attr title "queue length, timeavg"
attr unit pk
scalar NetworkA.sensor4.wlan[0].queue queueBitLength:last 304
attr autoWarmupFilter false
attr interpolationmode sample-hold
attr recordingmode last
attr source "warmup(atomic(constant0(packetPushEnded) + sum(packetLength(packetPushStarted)) - sum(packetLength(packetPulled)) - sum(packetLength(packetRemoved)) - sum(packetLength(packetDropped))))"
attr title "queue bit length, last"
attr unit b
scalar NetworkA.sensor4.wlan[0].queue queueBitLength:max 304
attr autoWarmupFilter false
attr interpolationmode sample-hold
attr recordingmode max
attr source "warmup(atomic(constant0(packetPushEnded) + sum(packetLength(packetPushStarted)) - sum(packetLength(packetPulled)) - sum(packetLength(packetRemoved)) - sum(packetLength(packetDropped))))"
attr title "queue bit length, max"
attr unit b
scalar NetworkA.sensor4.wlan[0].queue queueBitLength:timeavg 139.94392238687
attr autoWarmupFilter false
attr interpolationmode sample-hold
attr recordingmode timeavg
attr source "warmup(atomic(constant0(packetPushEnded) + sum(packetLength(packetPushStarted)) - sum(packetLength(packetPulled)) - sum(packetLength(packetRemoved)) - sum(packetLength(packetDropped))))"
attr title "queue bit length, timeavg"
attr unit b
statistic NetworkA.sensor4.wlan[0].queue queueingTime:histogram
field count 65
field mean 0.19836598781162
field stddev 0.12811142742414
field min 0.052726493235
field max 0.568136917081
field sum 12.893789207755
field sqrsum 3.6080916543767
attr interpolationmode none
attr recordingmode histogram
attr source queueingTime(packetPulled)
attr title "queueing times"
attr unit s
bin	-inf	0
bin	0	0
bin	0.01	0
bin	0.02	0
bin	0.03	0
bin	0.04	0
bin	0.05	6
bin	0.06	0
bin	0.07	3
bin	0.08	6
bin	0.09	1
bin	0.1	4
bin	0.11	4
bin	0.12	2
bin	0.13	1
bin	0.14	3
bin	0.15	0
bin	0.16	3
bin	0.17	1
bin	0.18	2
bin	0.19	1
bin	0.2	3
bin	0.21	3
bin	0.22	2
bin	0.23	5
bin	0.24	0
bin	0.25	1
bin	0.26	1
bin	0.27	0
bin	0.28	1
bin	0.29	2
bin	0.3	0
bin	0.31	0
bin	0.32	0
bin	0.33	0
bin	0.34	1
bin	0.35	0
bin	0.36	0
bin	0.37	2
bin	0.38	1
bin	0.39	0
bin	0.4	0
bin	0.41	0
bin	0.42	0
bin	0.43	1
bin	0.44	0
bin	0.45	1
bin	0.46	0
bin	0.47	1
bin	0.48	1
bin	0.49	0
bin	0.5	0
bin	0.51	0
bin	0.52	0
bin	0.53	0
bin	0.54	0
bin	0.55	0
bin	0.56	2
bin	0.57	0
bin	0.58	0
bin	0.59	0
bin	0.6	0
bin	0.61	0
bin	0.62	0
bin	0.63	0
bin	0.64	0
bin	0.65	0
bin	0.66	0
bin	0.67	0
bin	0.68	0
bin	0.69	0
bin	0.7	0
scalar NetworkA.sensor4.wlan[0].queue outgoingPackets:count 65
attr recordingmode count
attr source packetPulled
attr title "outgoing packets, count"
attr unit pk
scalar NetworkA.sensor4.wlan[0].queue outgoingPacketLengths:sum 19760
attr interpolationmode none
attr recordingmode sum
attr source packetLength(packetPulled)
attr title "outgoing packet lengths, sum"
attr unit b
statistic NetworkA.sensor4.wlan[0].queue outgoingPacketLengths:histogram
field count 65
field mean 304
field stddev 0
field min 304
field max 304
field sum 19760
field sqrsum 6007040
attr interpolationmode none
attr recordingmode histogram
attr source packetLength(packetPulled)
attr title "outgoing packet lengths"
attr unit b
bin	-inf	0
bin	303	0
bin	304	65
bin	305	0
statistic NetworkA.sensor4.wlan[0].queue flowQueueingTime:histogram
field count 0
field mean -nan
field stddev nan
field min nan
field max nan
field sum 0
field sqrsum 0
attr interpolationmode none
attr recordingmode histogram
attr source queueingTime(demuxFlow(packetPulled))
attr title "flow queueing times"
attr unit s
bin	-inf	0
bin	0	0
bin	1	0
scalar NetworkA.sensor4.wlan[0].queue incomingPackets:count 66
attr recordingmode count
attr source packetPushStarted
attr title "incoming packets, count"
attr unit pk
scalar NetworkA.sensor4.wlan[0].queue incomingPacketLengths:sum 20064
attr interpolationmode none
attr recordingmode sum
attr source packetLength(packetPushStarted)
attr title "incoming packet lengths, sum"
attr unit b
statistic NetworkA.sensor4.wlan[0].queue incomingPacketLengths:histogram
field count 66
field mean 304
field stddev 0
field min 304
field max 304
field sum 20064
field sqrsum 6099456
attr interpolationmode none
attr recordingmode histogram
attr source packetLength(packetPushStarted)
attr title "incoming packet lengths"
attr unit b
bin	-inf	0
bin	303	0
bin	304	66
bin	305	0
scalar NetworkA.sensor4.wlan[0].queue droppedPacketsQueueOverflow:count 0
attr interpolationmode none
attr recordingmode count
attr source packetDropReasonIsQueueOverflow(packetDropped)
attr title "dropped packets: queue overflow, count"
attr unit pk
scalar NetworkA.sensor4.wlan[0].queue droppedPacketLengthsQueueOverflow:sum 0
attr interpolationmode none
attr recordingmode sum
attr source packetLength(packetDropReasonIsQueueOverflow(packetDropped))
attr title "dropped packet lengths: queue overflow, sum"
attr unit b
par NetworkA.sensor4.wlan[0].mac typename "\"inet.linklayer.bmac.BMac\""
par NetworkA.sensor4.wlan[0].mac interfaceTableModule "\"NetworkA.sensor4.interfaceTable\""
par NetworkA.sensor4.wlan[0].mac address "\"auto\""
attr mutable ""
par NetworkA.sensor4.wlan[0].mac slotDuration 0.05s
attr unit s
par NetworkA.sensor4.wlan[0].mac headerLength 8b
attr unit b
par NetworkA.sensor4.wlan[0].mac ctrlFrameLength 8b
attr unit b
par NetworkA.sensor4.wlan[0].mac mtu 0B
attr unit B
par NetworkA.sensor4.wlan[0].mac checkInterval 0.02s
attr unit s
par NetworkA.sensor4.wlan[0].mac animation true
par NetworkA.sensor4.wlan[0].mac bitrate 19200bps
attr unit bps
par NetworkA.sensor4.wlan[0].mac useMACAcks false
par NetworkA.sensor4.wlan[0].mac radioModule "\"^.radio\""
par NetworkA.sensor4.wlan[0].mac maxTxAttempts 2
scalar NetworkA.sensor4.wlan[0].mac nbTxDataPackets 65
scalar NetworkA.sensor4.wlan[0].mac nbTxPreambles 325
scalar NetworkA.sensor4.wlan[0].mac nbRxDataPackets 663
scalar NetworkA.sensor4.wlan[0].mac nbRxPreambles 1773
scalar NetworkA.sensor4.wlan[0].mac nbMissedAcks 0
scalar NetworkA.sensor4.wlan[0].mac nbRecvdAcks 0
scalar NetworkA.sensor4.wlan[0].mac nbTxAcks 0
scalar NetworkA.sensor4.wlan[0].mac nbDroppedDataPackets 0
scalar NetworkA.sensor4.wlan[0].mac packetDropIncorrectlyReceived:count 25
attr interpolationmode none
attr recordingmode count
attr source packetDropReasonIsIncorrectlyReceived(packetDropped)
attr title "packet drop: incorrectly received, count"
scalar NetworkA.sensor4.wlan[0].mac packetDropIncorrectlyReceived:sum(packetBytes) 2417
attr interpolationmode none
attr recordingmode sum(packetBytes)
attr source packetDropReasonIsIncorrectlyReceived(packetDropped)
attr title "packet drop: incorrectly received, sum(packetBytes)"
scalar NetworkA.sensor4.wlan[0].mac packetDropNotAddressedToUs:count 650
attr interpolationmode none
attr recordingmode count
attr source packetDropReasonIsNotAddressedToUs(packetDropped)
attr title "packet drop: not addressed to us, count"
scalar NetworkA.sensor4.wlan[0].mac packetDropNotAddressedToUs:sum(packetBytes) 78700
attr interpolationmode none
attr recordingmode sum(packetBytes)
attr source packetDropReasonIsNotAddressedToUs(packetDropped)
attr title "packet drop: not addressed to us, sum(packetBytes)"
scalar NetworkA.sensor4.wlan[0].mac packetDropQueueOverflow:count 0
attr interpolationmode none
attr recordingmode count
attr source packetDropReasonIsQueueOverflow(packetDropped)
attr title "packet drop: queue overflow, count"
scalar NetworkA.sensor4.wlan[0].mac packetDropQueueOverflow:sum(packetBytes) 0
attr interpolationmode none
attr recordingmode sum(packetBytes)
attr source packetDropReasonIsQueueOverflow(packetDropped)
attr title "packet drop: queue overflow, sum(packetBytes)"
scalar NetworkA.sensor4.wlan[0].mac linkBroken:count 0
attr interpolationmode none
attr recordingmode count
attr source linkBroken
attr title "link break, count"
par NetworkA.sensor4.wlan[0].radio.antenna typename "\"inet.physicallayer.wireless.common.antenna.IsotropicAntenna\""
par NetworkA.sensor4.wlan[0].radio.antenna mobilityModule "\"^.^.^.mobility\""
par NetworkA.sensor4.wlan[0].radio.antenna numAntennas 1
par NetworkA.sensor4.wlan[0].radio.transmitter typename "\"inet.physicallayer.wireless.apsk.packetlevel.ApskScalarTransmitter\""
par NetworkA.sensor4.wlan[0].radio.transmitter preambleDuration 0.000128s
attr unit s
par NetworkA.sensor4.wlan[0].radio.transmitter headerLength 32b
attr unit b
par NetworkA.sensor4.wlan[0].radio.transmitter bitrate 250000bps
attr unit bps
par NetworkA.sensor4.wlan[0].radio.transmitter power 0.0025W
attr unit W
par NetworkA.sensor4.wlan[0].radio.transmitter centerFrequency 2.45e+09Hz
attr unit Hz
par NetworkA.sensor4.wlan[0].radio.transmitter bandwidth 2e+06Hz
attr unit Hz
par NetworkA.sensor4.wlan[0].radio.transmitter codeRate 1
par NetworkA.sensor4.wlan[0].radio.transmitter modulation "\"BPSK\""
par NetworkA.sensor4.wlan[0].radio.receiver.errorModel typename "\"inet.physicallayer.wireless.apsk.packetlevel.errormodel.ApskErrorModel\""
par NetworkA.sensor4.wlan[0].radio.receiver.errorModel corruptionMode "\"packet\""
attr enum packet,chunk,byte,bit
par NetworkA.sensor4.wlan[0].radio.receiver.errorModel snirMode "\"min\""
attr enum min,mean
par NetworkA.sensor4.wlan[0].radio.receiver.errorModel snirOffset 0dB
attr unit dB
par NetworkA.sensor4.wlan[0].radio.receiver typename "\"inet.physicallayer.wireless.apsk.packetlevel.ApskScalarReceiver\""
par NetworkA.sensor4.wlan[0].radio.receiver snirThreshold -8dB
attr unit dB
par NetworkA.sensor4.wlan[0].radio.receiver snirThresholdMode "\"min\""
attr enum min,mean
par NetworkA.sensor4.wlan[0].radio.receiver energyDetection -95dBm
attr unit dBm
par NetworkA.sensor4.wlan[0].radio.receiver sensitivity -100dBm
attr unit dBm
par NetworkA.sensor4.wlan[0].radio.receiver centerFrequency 2.45e+09Hz
attr unit Hz
par NetworkA.sensor4.wlan[0].radio.receiver bandwidth 2e+06Hz
attr unit Hz
par NetworkA.sensor4.wlan[0].radio.receiver modulation "\"BPSK\""
par NetworkA.sensor4.wlan[0].radio.energyConsumer typename "\"MY_EnergyConsumer.MY_SensorStateBasedEpEnergyConsumer\""
par NetworkA.sensor4.wlan[0].radio.energyConsumer energySourceModule "\"NetworkA.sensor4.energyStorage\""
par NetworkA.sensor4.wlan[0].radio.energyConsumer offPowerConsumption 0W
attr unit W
par NetworkA.sensor4.wlan[0].radio.energyConsumer sleepPowerConsumption 1e-06W
attr unit W
par NetworkA.sensor4.wlan[0].radio.energyConsumer switchingPowerConsumption 0.025W
attr unit W
par NetworkA.sensor4.wlan[0].radio.energyConsumer receiverIdlePowerConsumption 5e-06W
attr unit W
par NetworkA.sensor4.wlan[0].radio.energyConsumer receiverBusyPowerConsumption 0.0001W
attr unit W
par NetworkA.sensor4.wlan[0].radio.energyConsumer receiverReceivingPowerConsumption 0.05W
attr unit W
par NetworkA.sensor4.wlan[0].radio.energyConsumer receiverReceivingPreamblePowerConsumption 0.05W
attr unit W
par NetworkA.sensor4.wlan[0].radio.energyConsumer receiverReceivingHeaderPowerConsumption 0.05W
attr unit W
par NetworkA.sensor4.wlan[0].radio.energyConsumer receiverReceivingDataPowerConsumption 0.05W
attr unit W
par NetworkA.sensor4.wlan[0].radio.energyConsumer transmitterIdlePowerConsumption 0.005W
attr unit W
par NetworkA.sensor4.wlan[0].radio.energyConsumer transmitterTransmittingPowerConsumption 0.075W
attr unit W
par NetworkA.sensor4.wlan[0].radio.energyConsumer transmitterTransmittingPreamblePowerConsumption 0.075W
attr unit W
par NetworkA.sensor4.wlan[0].radio.energyConsumer transmitterTransmittingHeaderPowerConsumption 0.075W
attr unit W
par NetworkA.sensor4.wlan[0].radio.energyConsumer transmitterTransmittingDataPowerConsumption 0.075W
attr unit W
scalar NetworkA.sensor4.wlan[0].radio.energyConsumer totalSleepTime 19.148219519424
scalar NetworkA.sensor4.wlan[0].radio.energyConsumer Sonnellini 3736
scalar NetworkA.sensor4.wlan[0].radio.energyConsumer txPowerConsumptionScalar:mean 0.0025889537971322
attr recordingmode mean
attr source txPowerConsumption
attr title "TX Power consumption stats, mean"
attr unit W
scalar NetworkA.sensor4.wlan[0].radio.energyConsumer rxPowerConsumptionScalar:mean 0.010913436006372
attr recordingmode mean
attr source rxPowerConsumption
attr title "RX Power consumption stats, mean"
attr unit W
par NetworkA.sensor4.wlan[0].radio typename "\"inet.physicallayer.wireless.apsk.packetlevel.ApskScalarRadio\""
par NetworkA.sensor4.wlan[0].radio radioMediumModule "\"radioMedium\""
par NetworkA.sensor4.wlan[0].radio energySourceModule "\"NetworkA.sensor4.energyStorage\""
par NetworkA.sensor4.wlan[0].radio initialRadioMode "\"sleep\""
attr enum off,sleep,receiver,transmitter,transceiver
par NetworkA.sensor4.wlan[0].radio switchingTimes "\"ms 0 0 0 0 0 0 0 0 0 0 0 0 0 0 0 0 0 0 0 0 0 0 0 0 0\""
par NetworkA.sensor4.wlan[0].radio sendRawBytes false
par NetworkA.sensor4.wlan[0].radio separateTransmissionParts false
par NetworkA.sensor4.wlan[0].radio separateReceptionParts false
par NetworkA.sensor4.wlan[0].radio displayCommunicationRange false
par NetworkA.sensor4.wlan[0].radio displayInterferenceRange false
par NetworkA.sensor4.wlan[0].radio centerFrequency 2.45e+09Hz
attr unit Hz
par NetworkA.sensor4.wlan[0].radio bandwidth 2e+06Hz
attr unit Hz
par NetworkA.sensor4.wlan[0].radio protocol "\"\""
par NetworkA.sensor4.wlan[0].radio signalAnalogRepresentation "\"scalar\""
attr enum scalar,dimensional
scalar NetworkA.sensor4.wlan[0].radio radioMode:count 1592
attr interpolationmode sample-hold
attr recordingmode count
attr source radioModeChanged
attr title "Radio mode, count"
scalar NetworkA.sensor4.wlan[0].radio receptionState:count 6610
attr interpolationmode sample-hold
attr recordingmode count
attr source receptionStateChanged
attr title "Radio reception state, count"
scalar NetworkA.sensor4.wlan[0].radio transmissionState:count 910
attr interpolationmode sample-hold
attr recordingmode count
attr source transmissionStateChanged
attr title "Radio transmission state, count"
statistic NetworkA.sensor4.wlan[0].radio minSnir:histogram
field count 2448
field mean 1189.7400391695
field stddev 760.62255002855
field min 0.26508113933302
field max 3263.8027434007
field sum 2912483.6158868
field sqrsum 4880802057.104
attr recordingmode histogram
attr source minimumSnir(packetSentToUpper)
attr title "Min SNIR"
bin	-inf	0
bin	0	125
bin	50	0
bin	100	0
bin	150	0
bin	200	0
bin	250	0
bin	300	0
bin	350	0
bin	400	0
bin	450	0
bin	500	0
bin	550	0
bin	600	0
bin	650	0
bin	700	0
bin	750	0
bin	800	0
bin	850	1737
bin	900	0
bin	950	0
bin	1000	0
bin	1050	0
bin	1100	0
bin	1150	0
bin	1200	0
bin	1250	0
bin	1300	0
bin	1350	0
bin	1400	0
bin	1450	0
bin	1500	0
bin	1550	0
bin	1600	0
bin	1650	0
bin	1700	0
bin	1750	0
bin	1800	0
bin	1850	0
bin	1900	186
bin	1950	0
bin	2000	0
bin	2050	0
bin	2100	224
bin	2150	0
bin	2200	0
bin	2250	0
bin	2300	0
bin	2350	0
bin	2400	0
bin	2450	0
bin	2500	0
bin	2550	0
bin	2600	0
bin	2650	0
bin	2700	0
bin	2750	0
bin	2800	0
bin	2850	0
bin	2900	0
bin	2950	0
bin	3000	0
bin	3050	0
bin	3100	0
bin	3150	0
bin	3200	0
bin	3250	176
bin	3300	0
bin	3350	0
bin	3400	0
bin	3450	0
bin	3500	0
bin	3550	0
bin	3600	0
bin	3650	0
bin	3700	0
bin	3750	0
bin	3800	0
bin	3850	0
bin	3900	0
bin	3950	0
bin	4000	0
bin	4050	0
bin	4100	0
statistic NetworkA.sensor4.wlan[0].radio packetErrorRate:histogram
field count 2448
field mean 0.011344294634674
field stddev 0.078832585405826
field min 0
field max 0.88879239502692
field sum 27.770833265683
field sqrsum 15.52210926358
attr recordingmode histogram
attr source packetErrorRate(packetSentToUpper)
attr title "Packet error rate"
bin	-inf	0
bin	0	2345
bin	0.02	16
bin	0.04	31
bin	0.06	0
bin	0.08	6
bin	0.1	0
bin	0.12	0
bin	0.14	0
bin	0.16	0
bin	0.18	10
bin	0.2	0
bin	0.22	0
bin	0.24	0
bin	0.26	0
bin	0.28	0
bin	0.3	0
bin	0.32	0
bin	0.34	0
bin	0.36	0
bin	0.38	0
bin	0.4	0
bin	0.42	0
bin	0.44	0
bin	0.46	29
bin	0.48	0
bin	0.5	0
bin	0.52	0
bin	0.54	0
bin	0.56	0
bin	0.58	0
bin	0.6	0
bin	0.62	0
bin	0.64	0
bin	0.66	0
bin	0.68	0
bin	0.7	0
bin	0.72	0
bin	0.74	0
bin	0.76	0
bin	0.78	0
bin	0.8	0
bin	0.82	0
bin	0.84	0
bin	0.86	0
bin	0.88	11
bin	0.9	0
bin	0.92	0
bin	0.94	0
bin	0.96	0
bin	0.98	0
bin	1	0
bin	1.02	0
bin	1.04	0
bin	1.06	0
bin	1.08	0
bin	1.1	0
bin	1.12	0
statistic NetworkA.sensor4.wlan[0].radio bitErrorRate:histogram
field count 2448
field mean 3.2649469096506e-05
field stddev 0.00022795371361892
field min 0
field max 0.0017927999238215
field sum 0.079925900348247
field sqrsum 0.00012976274363078
attr recordingmode histogram
attr source bitErrorRate(packetSentToUpper)
attr title "Bit error rate"
bin	-inf	0
bin	0	2345
bin	5e-05	22
bin	0.0001	0
bin	0.00015	41
bin	0.0002	0
bin	0.00025	0
bin	0.0003	0
bin	0.00035	0
bin	0.0004	0
bin	0.00045	0
bin	0.0005	0
bin	0.00055	0
bin	0.0006	0
bin	0.00065	0
bin	0.0007	0
bin	0.00075	0
bin	0.0008	0
bin	0.00085	0
bin	0.0009	0
bin	0.00095	0
bin	0.001	0
bin	0.00105	0
bin	0.0011	0
bin	0.00115	0
bin	0.0012	0
bin	0.00125	0
bin	0.0013	0
bin	0.00135	0
bin	0.0014	0
bin	0.00145	0
bin	0.0015	0
bin	0.00155	0
bin	0.0016	0
bin	0.00165	0
bin	0.0017	0
bin	0.00175	40
bin	0.0018	0
bin	0.00185	0
bin	0.0019	0
bin	0.00195	0
bin	0.002	0
bin	0.00205	0
bin	0.0021	0
bin	0.00215	0
bin	0.0022	0
bin	0.00225	0
statistic NetworkA.sensor4.wlan[0].radio symbolErrorRate:histogram
field count 2448
field mean 3.2649469096506e-05
field stddev 0.00022795371361892
field min 0
field max 0.0017927999238215
field sum 0.079925900348247
field sqrsum 0.00012976274363078
attr recordingmode histogram
attr source symbolErrorRate(packetSentToUpper)
attr title "Symbol error rate"
bin	-inf	0
bin	0	2345
bin	5e-05	22
bin	0.0001	0
bin	0.00015	41
bin	0.0002	0
bin	0.00025	0
bin	0.0003	0
bin	0.00035	0
bin	0.0004	0
bin	0.00045	0
bin	0.0005	0
bin	0.00055	0
bin	0.0006	0
bin	0.00065	0
bin	0.0007	0
bin	0.00075	0
bin	0.0008	0
bin	0.00085	0
bin	0.0009	0
bin	0.00095	0
bin	0.001	0
bin	0.00105	0
bin	0.0011	0
bin	0.00115	0
bin	0.0012	0
bin	0.00125	0
bin	0.0013	0
bin	0.00135	0
bin	0.0014	0
bin	0.00145	0
bin	0.0015	0
bin	0.00155	0
bin	0.0016	0
bin	0.00165	0
bin	0.0017	0
bin	0.00175	40
bin	0.0018	0
bin	0.00185	0
bin	0.0019	0
bin	0.00195	0
bin	0.002	0
bin	0.00205	0
bin	0.0021	0
bin	0.00215	0
bin	0.0022	0
bin	0.00225	0
scalar NetworkA.sensor4.wlan[0].radio packetDropped:count 0
attr interpolationmode none
attr recordingmode count
attr title "packets dropped, count"
scalar NetworkA.sensor4.wlan[0].radio packetDropped:sum(packetBytes) 0
attr interpolationmode none
attr recordingmode sum(packetBytes)
attr title "packets dropped, sum(packetBytes)"
par NetworkA.sensor4.wlan[0] typename "\"inet.linklayer.common.WirelessInterface\""
par NetworkA.sensor4.wlan[0] displayStringTextFormat "\"%a (%i)\\n%m\""
par NetworkA.sensor4.wlan[0] recordPcap false
par NetworkA.sensor4.wlan[0] numPcapRecorders 0
par NetworkA.sensor4.wlan[0] interfaceTableModule "\"NetworkA.sensor4.interfaceTable\""
par NetworkA.sensor4.wlan[0] energySourceModule "\"NetworkA.sensor4.energyStorage\""
par NetworkA.sensor4.wlan[0] protocol "\"\""
scalar NetworkA.sensor4.wlan[0] packetDropInterfaceDown:count 0
[...]
bin	0.26	0
bin	0.28	0
bin	0.3	0
bin	0.32	0
bin	0.34	0
bin	0.36	0
bin	0.38	0
bin	0.4	0
bin	0.42	0
bin	0.44	0
bin	0.46	0
bin	0.48	0
bin	0.5	0
statistic NetworkA.maliciousNode.wlan[0].radio bitErrorRate:histogram
field count 1162
field mean 1.4924229171344e-08
field stddev 2.0724409034584e-07
field min 0
field max 2.8903257161836e-06
field sum 1.7341954297101e-05
field sqrsum 5.0123896473793e-11
attr recordingmode histogram
attr source bitErrorRate(packetSentToUpper)
attr title "Bit error rate"
bin	-inf	0
bin	-0.5	0
bin	-0.48	0
bin	-0.46	0
bin	-0.44	0
bin	-0.42	0
bin	-0.4	0
bin	-0.38	0
bin	-0.36	0
bin	-0.34	0
bin	-0.32	0
bin	-0.3	0
bin	-0.28	0
bin	-0.26	0
bin	-0.24	0
bin	-0.22	0
bin	-0.2	0
bin	-0.18	0
bin	-0.16	0
bin	-0.14	0
bin	-0.12	0
bin	-0.1	0
bin	-0.08	0
bin	-0.06	0
bin	-0.04	0
bin	-0.02	0
bin	0	1162
bin	0.02	0
bin	0.04	0
bin	0.06	0
bin	0.08	0
bin	0.1	0
bin	0.12	0
bin	0.14	0
bin	0.16	0
bin	0.18	0
bin	0.2	0
bin	0.22	0
bin	0.24	0
bin	0.26	0
bin	0.28	0
bin	0.3	0
bin	0.32	0
bin	0.34	0
bin	0.36	0
bin	0.38	0
bin	0.4	0
bin	0.42	0
bin	0.44	0
bin	0.46	0
bin	0.48	0
bin	0.5	0
statistic NetworkA.maliciousNode.wlan[0].radio symbolErrorRate:histogram
field count 1162
field mean 1.4924229171344e-08
field stddev 2.0724409034584e-07
field min 0
field max 2.8903257161836e-06
field sum 1.7341954297101e-05
field sqrsum 5.0123896473793e-11
attr recordingmode histogram
attr source symbolErrorRate(packetSentToUpper)
attr title "Symbol error rate"
bin	-inf	0
bin	-0.5	0
bin	-0.48	0
bin	-0.46	0
bin	-0.44	0
bin	-0.42	0
bin	-0.4	0
bin	-0.38	0
bin	-0.36	0
bin	-0.34	0
bin	-0.32	0
bin	-0.3	0
bin	-0.28	0
bin	-0.26	0
bin	-0.24	0
bin	-0.22	0
bin	-0.2	0
bin	-0.18	0
bin	-0.16	0
bin	-0.14	0
bin	-0.12	0
bin	-0.1	0
bin	-0.08	0
bin	-0.06	0
bin	-0.04	0
bin	-0.02	0
bin	0	1162
bin	0.02	0
bin	0.04	0
bin	0.06	0
bin	0.08	0
bin	0.1	0
bin	0.12	0
bin	0.14	0
bin	0.16	0
bin	0.18	0
bin	0.2	0
bin	0.22	0
bin	0.24	0
bin	0.26	0
bin	0.28	0
bin	0.3	0
bin	0.32	0
bin	0.34	0
bin	0.36	0
bin	0.38	0
bin	0.4	0
bin	0.42	0
bin	0.44	0
bin	0.46	0
bin	0.48	0
bin	0.5	0
scalar NetworkA.maliciousNode.wlan[0].radio packetDropped:count 0
attr interpolationmode none
attr recordingmode count
attr title "packets dropped, count"
scalar NetworkA.maliciousNode.wlan[0].radio packetDropped:sum(packetBytes) 0
attr interpolationmode none
attr recordingmode sum(packetBytes)
attr title "packets dropped, sum(packetBytes)"
par NetworkA.maliciousNode.wlan[0] typename "\"inet.linklayer.common.WirelessInterface\""
par NetworkA.maliciousNode.wlan[0] displayStringTextFormat "\"%a (%i)\\n%m\""
par NetworkA.maliciousNode.wlan[0] recordPcap false
par NetworkA.maliciousNode.wlan[0] numPcapRecorders 0
par NetworkA.maliciousNode.wlan[0] interfaceTableModule "\"NetworkA.maliciousNode.interfaceTable\""
par NetworkA.maliciousNode.wlan[0] energySourceModule "\"\""
par NetworkA.maliciousNode.wlan[0] protocol "\"\""
scalar NetworkA.maliciousNode.wlan[0] packetDropInterfaceDown:count 0
attr interpolationmode none
attr recordingmode count
attr source packetDropReasonIsInterfaceDown(packetDropped)
attr title "packet drops: interface down, count"
scalar NetworkA.maliciousNode.wlan[0] packetDropInterfaceDown:sum(packetBytes) 0
attr interpolationmode none
attr recordingmode sum(packetBytes)
attr source packetDropReasonIsInterfaceDown(packetDropped)
attr title "packet drops: interface down, sum(packetBytes)"
scalar NetworkA.maliciousNode.wlan[0] packetDropNoCarrier:count 0
attr interpolationmode none
attr recordingmode count
attr source packetDropReasonIsNoCarrier(packetDropped)
attr title "packet drops: no carrier, count"
scalar NetworkA.maliciousNode.wlan[0] packetDropNoCarrier:sum(packetBytes) 0
attr interpolationmode none
attr recordingmode sum(packetBytes)
attr source packetDropReasonIsNoCarrier(packetDropped)
attr title "packet drops: no carrier, sum(packetBytes)"
par NetworkA.maliciousNode.ipv4.transportIn.channel typename "\"ned.IdealChannel\""
par NetworkA.maliciousNode.ipv4.up.out[0].channel typename "\"ned.IdealChannel\""
par NetworkA.maliciousNode.ipv4.lp.out[2].channel typename "\"ned.IdealChannel\""
par NetworkA.maliciousNode.ipv4.ifIn.channel typename "\"ned.IdealChannel\""
par NetworkA.maliciousNode.ipv4.configurator typename "\"inet.networklayer.configurator.ipv4.Ipv4NodeConfigurator\""
par NetworkA.maliciousNode.ipv4.configurator interfaceTableModule "\"NetworkA.maliciousNode.interfaceTable\""
par NetworkA.maliciousNode.ipv4.configurator routingTableModule "\"NetworkA.maliciousNode.ipv4.routingTable\""
par NetworkA.maliciousNode.ipv4.configurator networkConfiguratorModule "\"configurator\""
par NetworkA.maliciousNode.ipv4.configurator configureRoutingTable true
par NetworkA.maliciousNode.ipv4.routingTable typename "\"inet.networklayer.ipv4.Ipv4RoutingTable\""
par NetworkA.maliciousNode.ipv4.routingTable interfaceTableModule "\"NetworkA.maliciousNode.interfaceTable\""
par NetworkA.maliciousNode.ipv4.routingTable routerId "\"auto\""
par NetworkA.maliciousNode.ipv4.routingTable netmaskRoutes "\"*\""
par NetworkA.maliciousNode.ipv4.routingTable forwarding false
par NetworkA.maliciousNode.ipv4.routingTable multicastForwarding false
par NetworkA.maliciousNode.ipv4.routingTable useAdminDist false
par NetworkA.maliciousNode.ipv4.routingTable routingFile "\"\""
par NetworkA.maliciousNode.ipv4.natTable typename "\"inet.networklayer.ipv4.Ipv4NatTable\""
par NetworkA.maliciousNode.ipv4.natTable networkProtocolModule "\"^.ip\""
par NetworkA.maliciousNode.ipv4.natTable config "<config/> at content:1"
par NetworkA.maliciousNode.ipv4.up typename "\"inet.common.MessageDispatcher\""
par NetworkA.maliciousNode.ipv4.up displayStringTextFormat "\"processed %p pk (%l)\""
par NetworkA.maliciousNode.ipv4.up forwardServiceRegistration true
par NetworkA.maliciousNode.ipv4.up forwardProtocolRegistration true
par NetworkA.maliciousNode.ipv4.igmp typename "\"inet.networklayer.ipv4.Igmpv2\""
par NetworkA.maliciousNode.ipv4.igmp interfaceTableModule "\"NetworkA.maliciousNode.interfaceTable\""
par NetworkA.maliciousNode.ipv4.igmp routingTableModule "\"NetworkA.maliciousNode.ipv4.routingTable\""
par NetworkA.maliciousNode.ipv4.igmp crcMode "\"declared\""
attr enum declared,computed
par NetworkA.maliciousNode.ipv4.igmp enabled true
par NetworkA.maliciousNode.ipv4.igmp robustnessVariable 2
par NetworkA.maliciousNode.ipv4.igmp queryInterval 125s
attr unit s
par NetworkA.maliciousNode.ipv4.igmp queryResponseInterval 10s
attr unit s
par NetworkA.maliciousNode.ipv4.igmp groupMembershipInterval 260s
attr unit s
par NetworkA.maliciousNode.ipv4.igmp otherQuerierPresentInterval 255s
attr unit s
par NetworkA.maliciousNode.ipv4.igmp startupQueryInterval 31.25s
attr unit s
par NetworkA.maliciousNode.ipv4.igmp startupQueryCount 2
par NetworkA.maliciousNode.ipv4.igmp lastMemberQueryInterval 1s
attr unit s
par NetworkA.maliciousNode.ipv4.igmp lastMemberQueryCount 2
par NetworkA.maliciousNode.ipv4.igmp unsolicitedReportInterval 10s
attr unit s
par NetworkA.maliciousNode.ipv4.icmp typename "\"inet.networklayer.ipv4.Icmp\""
par NetworkA.maliciousNode.ipv4.icmp interfaceTableModule "\"NetworkA.maliciousNode.interfaceTable\""
par NetworkA.maliciousNode.ipv4.icmp routingTableModule "\"NetworkA.maliciousNode.ipv4.routingTable\""
par NetworkA.maliciousNode.ipv4.icmp crcMode "\"declared\""
attr enum declared,computed
attr mutable ""
par NetworkA.maliciousNode.ipv4.icmp quoteLength 8B
attr mutable ""
attr unit B
par NetworkA.maliciousNode.ipv4.mp typename "\"inet.common.MessageDispatcher\""
par NetworkA.maliciousNode.ipv4.mp displayStringTextFormat "\"processed %p pk (%l)\""
par NetworkA.maliciousNode.ipv4.mp forwardServiceRegistration true
par NetworkA.maliciousNode.ipv4.mp forwardProtocolRegistration true
par NetworkA.maliciousNode.ipv4.ip typename "\"inet.networklayer.ipv4.Ipv4\""
par NetworkA.maliciousNode.ipv4.ip interfaceTableModule "\"NetworkA.maliciousNode.interfaceTable\""
par NetworkA.maliciousNode.ipv4.ip routingTableModule "\"NetworkA.maliciousNode.ipv4.routingTable\""
par NetworkA.maliciousNode.ipv4.ip arpModule "\"NetworkA.maliciousNode.ipv4.arp\""
par NetworkA.maliciousNode.ipv4.ip icmpModule "\"NetworkA.maliciousNode.ipv4.icmp\""
par NetworkA.maliciousNode.ipv4.ip crcMode "\"declared\""
attr enum declared,computed
par NetworkA.maliciousNode.ipv4.ip timeToLive 32
par NetworkA.maliciousNode.ipv4.ip multicastTimeToLive 32
par NetworkA.maliciousNode.ipv4.ip fragmentTimeout 60s
attr unit s
par NetworkA.maliciousNode.ipv4.ip limitedBroadcast false
par NetworkA.maliciousNode.ipv4.ip directBroadcastInterfaces "\"\""
scalar NetworkA.maliciousNode.ipv4.ip packetDropAddressResolutionFailed:count 0
attr interpolationmode none
attr recordingmode count
attr source packetDropReasonIsAddressResolutionFailed(packetDropped)
attr title "packet drop: address resolution failed, count"
scalar NetworkA.maliciousNode.ipv4.ip packetDropAddressResolutionFailed:sum(packetBytes) 0
attr interpolationmode none
attr recordingmode sum(packetBytes)
attr source packetDropReasonIsAddressResolutionFailed(packetDropped)
attr title "packet drop: address resolution failed, sum(packetBytes)"
scalar NetworkA.maliciousNode.ipv4.ip packetDropHopLimitReached:count 0
attr interpolationmode none
attr recordingmode count
attr source packetDropReasonIsHopLimitReached(packetDropped)
attr title "packet drop: hop limit reached, count"
scalar NetworkA.maliciousNode.ipv4.ip packetDropHopLimitReached:sum(packetBytes) 0
attr interpolationmode none
attr recordingmode sum(packetBytes)
attr source packetDropReasonIsHopLimitReached(packetDropped)
attr title "packet drop: hop limit reached, sum(packetBytes)"
scalar NetworkA.maliciousNode.ipv4.ip packetDropForwardingDisabled:count 0
attr interpolationmode none
attr recordingmode count
attr source packetDropReasonIsForwardingDisabled(packetDropped)
attr title "packet drop: forwarding disabled, count"
scalar NetworkA.maliciousNode.ipv4.ip packetDropForwardingDisabled:sum(packetBytes) 0
attr interpolationmode none
attr recordingmode sum(packetBytes)
attr source packetDropReasonIsForwardingDisabled(packetDropped)
attr title "packet drop: forwarding disabled, sum(packetBytes)"
scalar NetworkA.maliciousNode.ipv4.ip packetDropNoInterfaceFound:count 0
attr interpolationmode none
attr recordingmode count
attr source packetDropReasonIsNoInterfaceFound(packetDropped)
attr title "packet drop: no interface found, count"
scalar NetworkA.maliciousNode.ipv4.ip packetDropNoInterfaceFound:sum(packetBytes) 0
attr interpolationmode none
attr recordingmode sum(packetBytes)
attr source packetDropReasonIsNoInterfaceFound(packetDropped)
attr title "packet drop: no interface found, sum(packetBytes)"
scalar NetworkA.maliciousNode.ipv4.ip packetDropNoRouteFound:count 0
attr interpolationmode none
attr recordingmode count
attr source packetDropReasonIsNoRouteFound(packetDropped)
attr title "packet drop: no route found, count"
scalar NetworkA.maliciousNode.ipv4.ip packetDropNoRouteFound:sum(packetBytes) 0
attr interpolationmode none
attr recordingmode sum(packetBytes)
attr source packetDropReasonIsNoRouteFound(packetDropped)
attr title "packet drop: no route found, sum(packetBytes)"
scalar NetworkA.maliciousNode.ipv4.ip packetDropUndefined:count 0
attr interpolationmode none
attr recordingmode count
attr source packetDropReasonIsUndefined(packetDropped)
attr title "packet drop: undefined, count"
scalar NetworkA.maliciousNode.ipv4.ip packetDropUndefined:sum(packetBytes) 0
attr interpolationmode none
attr recordingmode sum(packetBytes)
attr source packetDropReasonIsUndefined(packetDropped)
attr title "packet drop: undefined, sum(packetBytes)"
par NetworkA.maliciousNode.ipv4.arp typename "\"inet.networklayer.arp.ipv4.GlobalArp\""
par NetworkA.maliciousNode.ipv4.arp interfaceTableModule "\"NetworkA.maliciousNode.interfaceTable\""
par NetworkA.maliciousNode.ipv4.arp addressType "\"ipv4\""
attr enum ipv4,ipv6,mac,moduleid,modulepath
par NetworkA.maliciousNode.ipv4.lp typename "\"inet.common.MessageDispatcher\""
par NetworkA.maliciousNode.ipv4.lp displayStringTextFormat "\"processed %p pk (%l)\""
par NetworkA.maliciousNode.ipv4.lp forwardServiceRegistration true
par NetworkA.maliciousNode.ipv4.lp forwardProtocolRegistration true
par NetworkA.maliciousNode.ipv4 typename "\"inet.networklayer.ipv4.Ipv4NetworkLayer\""
par NetworkA.maliciousNode.ipv4 forwarding false
par NetworkA.maliciousNode.ipv4 multicastForwarding false
par NetworkA.maliciousNode.ipv4 interfaceTableModule "\"NetworkA.maliciousNode.interfaceTable\""
par NetworkA.maliciousNode.ipv4 displayStringTextFormat "\"%i\""
par NetworkA.maliciousNode.nl typename "\"inet.common.MessageDispatcher\""
par NetworkA.maliciousNode.nl displayStringTextFormat "\"processed %p pk (%l)\""
par NetworkA.maliciousNode.nl forwardServiceRegistration true
par NetworkA.maliciousNode.nl forwardProtocolRegistration true
par NetworkA.maliciousNode.udp typename "\"inet.transportlayer.udp.Udp\""
par NetworkA.maliciousNode.udp interfaceTableModule "\"NetworkA.maliciousNode.interfaceTable\""
par NetworkA.maliciousNode.udp icmpModule "\"^.ipv4.icmp\""
par NetworkA.maliciousNode.udp icmpv6Module "\"^.ipv6.icmpv6\""
par NetworkA.maliciousNode.udp crcMode "\"declared\""
attr enum disabled,declared,computed
par NetworkA.maliciousNode.udp defaultMulticastLoop true
scalar NetworkA.maliciousNode.udp packetReceived:count 0
attr interpolationmode none
attr recordingmode count
attr source packetReceived
attr title "packets received, count"
scalar NetworkA.maliciousNode.udp packetReceived:sum(packetBytes) 0
attr interpolationmode none
attr recordingmode sum(packetBytes)
attr source packetReceived
attr title "packets received, sum(packetBytes)"
scalar NetworkA.maliciousNode.udp packetSent:count 1001
attr interpolationmode none
attr recordingmode count
attr source packetSent
attr title "packets sent, count"
scalar NetworkA.maliciousNode.udp packetSent:sum(packetBytes) 128128
attr interpolationmode none
attr recordingmode sum(packetBytes)
attr source packetSent
attr title "packets sent, sum(packetBytes)"
scalar NetworkA.maliciousNode.udp passedUpPk:count 0
attr interpolationmode none
attr recordingmode count
attr source packetSentToUpper
attr title "packets passed up, count"
scalar NetworkA.maliciousNode.udp droppedPkWrongPort:count 0
attr interpolationmode none
attr recordingmode count
attr source packetDropReasonIsNoPortFound(packetDropped)
attr title "packets dropped (wrong port), count"
scalar NetworkA.maliciousNode.udp droppedPkBadChecksum:count 0
attr interpolationmode none
attr recordingmode count
attr source packetDropReasonIsIncorrectlyReceived(packetDropped)
attr title "packets dropped (checksum error), count"
par NetworkA.maliciousNode.tcp typename "\"inet.transportlayer.tcp.Tcp\""
par NetworkA.maliciousNode.tcp crcMode "\"declared\""
attr enum declared,computed
par NetworkA.maliciousNode.tcp advertisedWindow 7504
par NetworkA.maliciousNode.tcp delayedAcksEnabled false
par NetworkA.maliciousNode.tcp nagleEnabled true
par NetworkA.maliciousNode.tcp limitedTransmitEnabled false
par NetworkA.maliciousNode.tcp increasedIWEnabled false
par NetworkA.maliciousNode.tcp sackSupport false
par NetworkA.maliciousNode.tcp windowScalingSupport false
par NetworkA.maliciousNode.tcp windowScalingFactor -1
par NetworkA.maliciousNode.tcp timestampSupport false
par NetworkA.maliciousNode.tcp mss 536
par NetworkA.maliciousNode.tcp msl 120s
attr unit s
par NetworkA.maliciousNode.tcp tcpAlgorithmClass "\"TcpReno\""
par NetworkA.maliciousNode.tcp useDataNotification false
par NetworkA.maliciousNode.tcp dupthresh 3
par NetworkA.maliciousNode.tcp initialSsthresh 4294967295
par NetworkA.maliciousNode.tcp stopOperationExtraTime 0s
attr unit s
par NetworkA.maliciousNode.tcp stopOperationTimeout 2s
attr unit s
par NetworkA.maliciousNode.tcp ecnWillingness false
par NetworkA.maliciousNode.tcp dctcpGamma 0.0625
par NetworkA.maliciousNode.tn typename "\"inet.common.MessageDispatcher\""
par NetworkA.maliciousNode.tn displayStringTextFormat "\"processed %p pk (%l)\""
par NetworkA.maliciousNode.tn forwardServiceRegistration true
par NetworkA.maliciousNode.tn forwardProtocolRegistration true
par NetworkA.maliciousNode.app[0] typename "\"inet.applications.udpapp.UdpBasicApp\""
par NetworkA.maliciousNode.app[0] interfaceTableModule "\"NetworkA.maliciousNode.interfaceTable\""
par NetworkA.maliciousNode.app[0] clockModule "\"\""
par NetworkA.maliciousNode.app[0] localPort -1
par NetworkA.maliciousNode.app[0] destAddresses "\"10.0.0.5\""
par NetworkA.maliciousNode.app[0] localAddress "\"\""
par NetworkA.maliciousNode.app[0] packetName "\"UdpBasicAppData\""
par NetworkA.maliciousNode.app[0] destPort 4000
par NetworkA.maliciousNode.app[0] messageLength 120B
attr unit B
par NetworkA.maliciousNode.app[0] startTime 0s
attr unit s
par NetworkA.maliciousNode.app[0] stopTime -1s
attr unit s
par NetworkA.maliciousNode.app[0] sendInterval 0.1s
attr unit s
par NetworkA.maliciousNode.app[0] timeToLive -1
par NetworkA.maliciousNode.app[0] dontFragment false
par NetworkA.maliciousNode.app[0] dscp -1
par NetworkA.maliciousNode.app[0] tos -1
par NetworkA.maliciousNode.app[0] multicastInterface "\"\""
par NetworkA.maliciousNode.app[0] receiveBroadcast false
par NetworkA.maliciousNode.app[0] joinLocalMulticastGroups false
par NetworkA.maliciousNode.app[0] stopOperationExtraTime -1s
attr unit s
par NetworkA.maliciousNode.app[0] stopOperationTimeout 2s
attr unit s
scalar NetworkA.maliciousNode.app[0] "packets sent" 1001
scalar NetworkA.maliciousNode.app[0] "packets received" 0
scalar NetworkA.maliciousNode.app[0] packetReceived:count 0
attr interpolationmode none
attr recordingmode count
attr source packetReceived
attr title "packets received, count"
scalar NetworkA.maliciousNode.app[0] packetReceived:sum(packetBytes) 0
attr interpolationmode none
attr recordingmode sum(packetBytes)
attr source packetReceived
attr title "packets received, sum(packetBytes)"
statistic NetworkA.maliciousNode.app[0] rcvdPkLifetime:stats
field count 0
field mean -nan
field stddev nan
field min nan
field max nan
field sum 0
field sqrsum 0
attr interpolationmode none
attr recordingmode stats
attr source dataAge(packetReceived)
attr title "received packet lifetime"
attr unit s
scalar NetworkA.maliciousNode.app[0] packetSent:count 1001
attr interpolationmode none
attr recordingmode count
attr source packetSent
attr title "packets sent, count"
scalar NetworkA.maliciousNode.app[0] packetSent:sum(packetBytes) 120120
attr interpolationmode none
attr recordingmode sum(packetBytes)
attr source packetSent
attr title "packets sent, sum(packetBytes)"
par NetworkA.maliciousNode.at typename "\"inet.common.MessageDispatcher\""
par NetworkA.maliciousNode.at displayStringTextFormat "\"processed %p pk (%l)\""
par NetworkA.maliciousNode.at forwardServiceRegistration true
par NetworkA.maliciousNode.at forwardProtocolRegistration true
par NetworkA.maliciousNode typename "\"inet.node.inet.WirelessHost\""
par NetworkA.maliciousNode hasStatus false
par NetworkA.maliciousNode osgModel "\"\""
par NetworkA.maliciousNode osgModelColor "\"\""
par NetworkA.maliciousNode canvasImage "\"\""
par NetworkA.maliciousNode canvasImageColor "\"\""
par NetworkA.maliciousNode recordPcap false
par NetworkA.maliciousNode numPcapRecorders 0
par NetworkA.maliciousNode numLoInterfaces 1
par NetworkA.maliciousNode numWlanInterfaces 1
par NetworkA.maliciousNode numEthInterfaces 0
par NetworkA.maliciousNode numPppInterfaces 0
par NetworkA.maliciousNode numTunInterfaces 0
par NetworkA.maliciousNode numVirtInterfaces 0
par NetworkA.maliciousNode fcsMode "\"declared\""
attr enum declared,computed
par NetworkA.maliciousNode hasIpv4 true
par NetworkA.maliciousNode hasIpv6 false
par NetworkA.maliciousNode hasGn false
par NetworkA.maliciousNode forwarding false
par NetworkA.maliciousNode multicastForwarding false
par NetworkA.maliciousNode hasUdp true
par NetworkA.maliciousNode hasTcp true
par NetworkA.maliciousNode hasSctp false
par NetworkA.maliciousNode numApps 1
par NetworkA typename "\"NetworkA\""

